DEPTH=8192;
WIDTH=8;
ADDRESS_RADIX=HEX;
DATA_RADIX=HEX;
CONTENT
BEGIN
   0 : 1f;
   1 : 3f;
   2 : 2b;
   3 : 2b;
   4 : 3f;
   5 : 1f;
   6 : 00;
   7 : 33;
   8 : 00;
   9 : 00;
   A : 2b;
   B : 2a;
   C : 00;
   D : 00;
   E : 0f;
   F : 34;
  10 : b0;
  11 : c0;
  12 : e0;
  13 : e0;
  14 : c0;
  15 : 80;
  16 : 00;
  17 : 80;
  18 : 10;
  19 : 00;
  1A : 00;
  1B : 00;
  1C : 00;
  1D : 40;
  1E : c0;
  1F : 60;
  20 : 1f;
  21 : 3f;
  22 : 2b;
  23 : 2b;
  24 : 3f;
  25 : 1f;
  26 : 00;
  27 : 11;
  28 : 00;
  29 : 00;
  2A : 2b;
  2B : 2a;
  2C : 00;
  2D : 00;
  2E : 0f;
  2F : 0e;
  30 : b0;
  31 : c0;
  32 : e0;
  33 : e0;
  34 : c0;
  35 : 00;
  36 : 00;
  37 : c0;
  38 : 10;
  39 : 00;
  3A : 00;
  3B : 00;
  3C : 00;
  3D : c0;
  3E : c0;
  3F : 20;
  40 : 00;
  41 : 1f;
  42 : 3f;
  43 : 2b;
  44 : 2b;
  45 : 3f;
  46 : 1f;
  47 : 00;
  48 : 00;
  49 : 00;
  4A : 00;
  4B : 2b;
  4C : 2a;
  4D : 00;
  4E : 00;
  4F : 07;
  50 : 10;
  51 : 80;
  52 : c0;
  53 : e0;
  54 : e0;
  55 : c0;
  56 : 00;
  57 : c0;
  58 : 10;
  59 : 20;
  5A : 00;
  5B : 00;
  5C : 00;
  5D : 00;
  5E : c0;
  5F : 20;
  60 : 07;
  61 : 0f;
  62 : 0d;
  63 : 0d;
  64 : 0f;
  65 : 07;
  66 : 00;
  67 : 08;
  68 : 00;
  69 : 00;
  6A : 05;
  6B : 05;
  6C : 00;
  6D : 00;
  6E : 03;
  6F : 07;
  70 : e0;
  71 : f0;
  72 : b0;
  73 : b0;
  74 : f0;
  75 : e0;
  76 : 00;
  77 : 3c;
  78 : 00;
  79 : 00;
  7A : a0;
  7B : a0;
  7C : 00;
  7D : 00;
  7E : c0;
  7F : cc;
  80 : 07;
  81 : 0f;
  82 : 0d;
  83 : 0d;
  84 : 0f;
  85 : 07;
  86 : 00;
  87 : 0c;
  88 : 00;
  89 : 00;
  8A : 05;
  8B : 05;
  8C : 00;
  8D : 00;
  8E : 03;
  8F : 03;
  90 : e0;
  91 : f0;
  92 : b0;
  93 : b0;
  94 : f0;
  95 : e0;
  96 : 00;
  97 : 30;
  98 : 00;
  99 : 00;
  9A : a0;
  9B : a0;
  9C : 00;
  9D : 00;
  9E : c0;
  9F : c0;
  A0 : 07;
  A1 : 0f;
  A2 : 0d;
  A3 : 0d;
  A4 : 0f;
  A5 : 07;
  A6 : 00;
  A7 : 3c;
  A8 : 00;
  A9 : 00;
  AA : 05;
  AB : 05;
  AC : 00;
  AD : 00;
  AE : 03;
  AF : 33;
  B0 : e0;
  B1 : f0;
  B2 : b0;
  B3 : b0;
  B4 : f0;
  B5 : e0;
  B6 : 00;
  B7 : 10;
  B8 : 00;
  B9 : 00;
  BA : a0;
  BB : a0;
  BC : 00;
  BD : 00;
  BE : c0;
  BF : e0;
  C0 : 07;
  C1 : 0e;
  C2 : 0f;
  C3 : 0f;
  C4 : 0f;
  C5 : 07;
  C6 : 00;
  C7 : 08;
  C8 : 00;
  C9 : 01;
  CA : 00;
  CB : 00;
  CC : 00;
  CD : 00;
  CE : 03;
  CF : 07;
  D0 : e0;
  D1 : 70;
  D2 : b0;
  D3 : f0;
  D4 : f0;
  D5 : e0;
  D6 : 00;
  D7 : 1c;
  D8 : 00;
  D9 : 80;
  DA : 40;
  DB : 00;
  DC : 00;
  DD : 00;
  DE : c0;
  DF : ec;
  E0 : 07;
  E1 : 0e;
  E2 : 0f;
  E3 : 0f;
  E4 : 0f;
  E5 : 07;
  E6 : 00;
  E7 : 08;
  E8 : 00;
  E9 : 01;
  EA : 00;
  EB : 00;
  EC : 00;
  ED : 00;
  EE : 03;
  EF : 07;
  F0 : e0;
  F1 : 70;
  F2 : b0;
  F3 : f0;
  F4 : f0;
  F5 : e0;
  F6 : 00;
  F7 : 10;
  F8 : 00;
  F9 : 80;
  FA : 40;
  FB : 00;
  FC : 00;
  FD : 00;
  FE : c0;
  FF : e0;
 100 : 3f;
 101 : 0f;
 102 : 20;
 103 : 38;
 104 : 3c;
 105 : 38;
 106 : 00;
 107 : 00;
 108 : 30;
 109 : 00;
 10A : 27;
 10B : 37;
 10C : 33;
 10D : 36;
 10E : 00;
 10F : 00;
 110 : 98;
 111 : 18;
 112 : 00;
 113 : 80;
 114 : f0;
 115 : f8;
 116 : 30;
 117 : 60;
 118 : 78;
 119 : f8;
 11A : e0;
 11B : 60;
 11C : 00;
 11D : 18;
 11E : 30;
 11F : 60;
 120 : 10;
 121 : 30;
 122 : 31;
 123 : 01;
 124 : 06;
 125 : 06;
 126 : 0e;
 127 : 01;
 128 : 0f;
 129 : 3f;
 12A : 3f;
 12B : 0f;
 12C : 01;
 12D : 06;
 12E : 0e;
 12F : 01;
 130 : e0;
 131 : e0;
 132 : c0;
 133 : 80;
 134 : c0;
 135 : c0;
 136 : c0;
 137 : c0;
 138 : 00;
 139 : 80;
 13A : a0;
 13B : e0;
 13C : 00;
 13D : 00;
 13E : c0;
 13F : c0;
 140 : 00;
 141 : 30;
 142 : 38;
 143 : 08;
 144 : 03;
 145 : 03;
 146 : 01;
 147 : 03;
 148 : 0f;
 149 : 3f;
 14A : 37;
 14B : 07;
 14C : 00;
 14D : 00;
 14E : 01;
 14F : 03;
 150 : e0;
 151 : 70;
 152 : 38;
 153 : 18;
 154 : 18;
 155 : bc;
 156 : 84;
 157 : 80;
 158 : 00;
 159 : 80;
 15A : d8;
 15B : f8;
 15C : e0;
 15D : 0c;
 15E : 84;
 15F : 80;
 160 : 18;
 161 : 18;
 162 : 30;
 163 : 30;
 164 : 06;
 165 : 06;
 166 : 06;
 167 : 00;
 168 : 07;
 169 : 07;
 16A : 37;
 16B : 37;
 16C : 01;
 16D : 06;
 16E : 06;
 16F : 00;
 170 : 1c;
 171 : 00;
 172 : 00;
 173 : 60;
 174 : 60;
 175 : 60;
 176 : 60;
 177 : 60;
 178 : ec;
 179 : e0;
 17A : e0;
 17B : 80;
 17C : 80;
 17D : 00;
 17E : 60;
 17F : 60;
 180 : 18;
 181 : 38;
 182 : 30;
 183 : 00;
 184 : 06;
 185 : 06;
 186 : 06;
 187 : 06;
 188 : 07;
 189 : 37;
 18A : 37;
 18B : 07;
 18C : 01;
 18D : 00;
 18E : 06;
 18F : 06;
 190 : 18;
 191 : 1c;
 192 : 0c;
 193 : 00;
 194 : 60;
 195 : 60;
 196 : 60;
 197 : 60;
 198 : e0;
 199 : ec;
 19A : ec;
 19B : e0;
 19C : 80;
 19D : 00;
 19E : 60;
 19F : 60;
 1A0 : 38;
 1A1 : 00;
 1A2 : 00;
 1A3 : 06;
 1A4 : 06;
 1A5 : 06;
 1A6 : 06;
 1A7 : 06;
 1A8 : 37;
 1A9 : 07;
 1AA : 07;
 1AB : 01;
 1AC : 01;
 1AD : 00;
 1AE : 06;
 1AF : 06;
 1B0 : 18;
 1B1 : 18;
 1B2 : 0c;
 1B3 : 0c;
 1B4 : 60;
 1B5 : 60;
 1B6 : 60;
 1B7 : 00;
 1B8 : e0;
 1B9 : e0;
 1BA : ec;
 1BB : ec;
 1BC : 80;
 1BD : 60;
 1BE : 60;
 1BF : 00;
 1C0 : 19;
 1C1 : 19;
 1C2 : 37;
 1C3 : 30;
 1C4 : 06;
 1C5 : 06;
 1C6 : 06;
 1C7 : 00;
 1C8 : 07;
 1C9 : 07;
 1CA : 30;
 1CB : 37;
 1CC : 01;
 1CD : 06;
 1CE : 06;
 1CF : 00;
 1D0 : 9c;
 1D1 : 80;
 1D2 : e0;
 1D3 : 00;
 1D4 : 60;
 1D5 : 60;
 1D6 : 60;
 1D7 : 60;
 1D8 : ec;
 1D9 : e0;
 1DA : 00;
 1DB : e0;
 1DC : 80;
 1DD : 00;
 1DE : 60;
 1DF : 60;
 1E0 : 18;
 1E1 : 39;
 1E2 : 37;
 1E3 : 00;
 1E4 : 06;
 1E5 : 06;
 1E6 : 06;
 1E7 : 06;
 1E8 : 07;
 1E9 : 37;
 1EA : 30;
 1EB : 07;
 1EC : 01;
 1ED : 00;
 1EE : 06;
 1EF : 06;
 1F0 : 18;
 1F1 : 9c;
 1F2 : ec;
 1F3 : 00;
 1F4 : 60;
 1F5 : 60;
 1F6 : 60;
 1F7 : 60;
 1F8 : e0;
 1F9 : ec;
 1FA : 0c;
 1FB : e0;
 1FC : 80;
 1FD : 00;
 1FE : 60;
 1FF : 60;
 200 : 07;
 201 : 0e;
 202 : 0f;
 203 : 0f;
 204 : 0f;
 205 : 07;
 206 : 00;
 207 : 38;
 208 : 00;
 209 : 01;
 20A : 00;
 20B : 00;
 20C : 00;
 20D : 00;
 20E : 03;
 20F : 37;
 210 : e0;
 211 : 70;
 212 : b0;
 213 : f0;
 214 : f0;
 215 : e0;
 216 : 00;
 217 : 10;
 218 : 00;
 219 : 80;
 21A : 40;
 21B : 00;
 21C : 00;
 21D : 00;
 21E : c0;
 21F : e0;
 220 : 0f;
 221 : 1f;
 222 : 1b;
 223 : 1f;
 224 : 1f;
 225 : 0f;
 226 : 30;
 227 : 38;
 228 : 00;
 229 : 00;
 22A : 00;
 22B : 00;
 22C : 00;
 22D : 00;
 22E : 33;
 22F : 37;
 230 : f0;
 231 : f8;
 232 : b8;
 233 : f8;
 234 : f8;
 235 : f0;
 236 : 0c;
 237 : 3c;
 238 : 00;
 239 : 00;
 23A : 00;
 23B : 00;
 23C : 00;
 23D : 00;
 23E : cc;
 23F : cc;
 240 : 0f;
 241 : 15;
 242 : 1b;
 243 : 15;
 244 : 1f;
 245 : 0f;
 246 : 30;
 247 : 30;
 248 : 00;
 249 : 00;
 24A : 00;
 24B : 00;
 24C : 00;
 24D : 00;
 24E : 37;
 24F : 3f;
 250 : f0;
 251 : 58;
 252 : b8;
 253 : 58;
 254 : f8;
 255 : f0;
 256 : 0c;
 257 : 0c;
 258 : 00;
 259 : 00;
 25A : 00;
 25B : 00;
 25C : 00;
 25D : 00;
 25E : ec;
 25F : fc;
 260 : 0f;
 261 : 15;
 262 : 1b;
 263 : 15;
 264 : 1f;
 265 : 08;
 266 : 30;
 267 : 34;
 268 : 00;
 269 : 00;
 26A : 00;
 26B : 00;
 26C : 00;
 26D : 07;
 26E : 3f;
 26F : 3b;
 270 : f0;
 271 : 58;
 272 : b8;
 273 : 58;
 274 : f8;
 275 : 10;
 276 : 0c;
 277 : 0c;
 278 : 00;
 279 : 00;
 27A : 00;
 27B : 00;
 27C : 00;
 27D : e0;
 27E : dc;
 27F : bc;
 280 : 0f;
 281 : 15;
 282 : 1b;
 283 : 15;
 284 : 18;
 285 : 00;
 286 : 30;
 287 : 32;
 288 : 00;
 289 : 00;
 28A : 00;
 28B : 00;
 28C : 07;
 28D : 0f;
 28E : 3f;
 28F : 38;
 290 : f0;
 291 : 58;
 292 : b8;
 293 : 58;
 294 : 08;
 295 : 08;
 296 : 0c;
 297 : 2c;
 298 : 00;
 299 : 00;
 29A : 00;
 29B : 00;
 29C : f0;
 29D : f0;
 29E : 1c;
 29F : 1c;
 2A0 : 00;
 2A1 : 0f;
 2A2 : 15;
 2A3 : 18;
 2A4 : 12;
 2A5 : 04;
 2A6 : 30;
 2A7 : 30;
 2A8 : 00;
 2A9 : 00;
 2AA : 00;
 2AB : 07;
 2AC : 0c;
 2AD : 18;
 2AE : 38;
 2AF : 38;
 2B0 : 00;
 2B1 : f0;
 2B2 : 58;
 2B3 : 18;
 2B4 : 08;
 2B5 : 00;
 2B6 : 0c;
 2B7 : 3c;
 2B8 : 00;
 2B9 : 00;
 2BA : 00;
 2BB : e0;
 2BC : f0;
 2BD : 38;
 2BE : 0c;
 2BF : 0c;
 2C0 : 00;
 2C1 : 06;
 2C2 : 08;
 2C3 : 00;
 2C4 : 00;
 2C5 : 00;
 2C6 : 30;
 2C7 : 30;
 2C8 : 00;
 2C9 : 01;
 2CA : 07;
 2CB : 62;
 2CC : 40;
 2CD : 00;
 2CE : 30;
 2CF : 78;
 2D0 : 00;
 2D1 : d0;
 2D2 : 98;
 2D3 : 08;
 2D4 : 00;
 2D5 : 00;
 2D6 : 0c;
 2D7 : 1c;
 2D8 : 00;
 2D9 : 20;
 2DA : 40;
 2DB : 26;
 2DC : 02;
 2DD : 00;
 2DE : 0c;
 2DF : 0c;
 2E0 : 00;
 2E1 : 00;
 2E2 : 00;
 2E3 : 00;
 2E4 : 00;
 2E5 : 00;
 2E6 : 30;
 2E7 : 30;
 2E8 : 00;
 2E9 : 00;
 2EA : 00;
 2EB : 00;
 2EC : 00;
 2ED : 00;
 2EE : 30;
 2EF : 38;
 2F0 : 00;
 2F1 : 00;
 2F2 : 00;
 2F3 : 00;
 2F4 : 00;
 2F5 : 00;
 2F6 : 0c;
 2F7 : 0c;
 2F8 : 00;
 2F9 : 00;
 2FA : 00;
 2FB : 00;
 2FC : 00;
 2FD : 00;
 2FE : 0c;
 2FF : 1c;
 300 : 38;
 301 : 01;
 302 : 07;
 303 : 00;
 304 : 06;
 305 : 06;
 306 : 06;
 307 : 06;
 308 : 37;
 309 : 07;
 30A : 00;
 30B : 07;
 30C : 01;
 30D : 00;
 30E : 06;
 30F : 06;
 310 : 18;
 311 : 98;
 312 : ec;
 313 : 0c;
 314 : 60;
 315 : 60;
 316 : 60;
 317 : 00;
 318 : e0;
 319 : e0;
 31A : 0c;
 31B : ec;
 31C : 80;
 31D : 60;
 31E : 60;
 31F : 00;
 320 : 00;
 321 : 00;
 322 : 00;
 323 : 00;
 324 : 00;
 325 : 08;
 326 : 1c;
 327 : 18;
 328 : 0f;
 329 : 1f;
 32A : 1f;
 32B : 1f;
 32C : 0f;
 32D : 07;
 32E : 1b;
 32F : 18;
 330 : 00;
 331 : 00;
 332 : 00;
 333 : 00;
 334 : 00;
 335 : 10;
 336 : 38;
 337 : 18;
 338 : f0;
 339 : f8;
 33A : f8;
 33B : f8;
 33C : f0;
 33D : e0;
 33E : d8;
 33F : 18;
 340 : 00;
 341 : 06;
 342 : 02;
 343 : 00;
 344 : 00;
 345 : 00;
 346 : 18;
 347 : 18;
 348 : 19;
 349 : 38;
 34A : 3c;
 34B : 3d;
 34C : 1f;
 34D : 0f;
 34E : 1f;
 34F : 1b;
 350 : 00;
 351 : 80;
 352 : 00;
 353 : 40;
 354 : 80;
 355 : 00;
 356 : 18;
 357 : 18;
 358 : 78;
 359 : 7c;
 35A : fc;
 35B : 3c;
 35C : 78;
 35D : f0;
 35E : f8;
 35F : d8;
 360 : 01;
 361 : 08;
 362 : 04;
 363 : 04;
 364 : 01;
 365 : 04;
 366 : 18;
 367 : 18;
 368 : 72;
 369 : 70;
 36A : 78;
 36B : 78;
 36C : 32;
 36D : 1b;
 36E : 1f;
 36F : 1f;
 370 : 00;
 371 : 00;
 372 : 40;
 373 : 00;
 374 : 40;
 375 : 00;
 376 : 18;
 377 : 18;
 378 : 7e;
 379 : 7e;
 37A : be;
 37B : 3e;
 37C : 0c;
 37D : 78;
 37E : f8;
 37F : f8;
 380 : 00;
 381 : 08;
 382 : 04;
 383 : 00;
 384 : 00;
 385 : 01;
 386 : 18;
 387 : 18;
 388 : 10;
 389 : 30;
 38A : 38;
 38B : 30;
 38C : 30;
 38D : 1a;
 38E : 1f;
 38F : 1f;
 390 : 40;
 391 : 20;
 392 : 00;
 393 : 00;
 394 : 80;
 395 : 40;
 396 : 18;
 397 : 18;
 398 : 38;
 399 : 1c;
 39A : 1c;
 39B : 1c;
 39C : 0c;
 39D : 98;
 39E : f8;
 39F : f8;
 3A0 : 00;
 3A1 : 00;
 3A2 : 10;
 3A3 : 00;
 3A4 : 00;
 3A5 : 04;
 3A6 : 19;
 3A7 : 18;
 3A8 : 60;
 3A9 : 60;
 3AA : 60;
 3AB : 60;
 3AC : 00;
 3AD : 18;
 3AE : 18;
 3AF : 1b;
 3B0 : 40;
 3B1 : 10;
 3B2 : 00;
 3B3 : 00;
 3B4 : 00;
 3B5 : 80;
 3B6 : 18;
 3B7 : 18;
 3B8 : 38;
 3B9 : 0c;
 3BA : 0c;
 3BB : 0c;
 3BC : 00;
 3BD : 10;
 3BE : d8;
 3BF : d8;
 3C0 : 20;
 3C1 : 40;
 3C2 : 00;
 3C3 : 00;
 3C4 : 20;
 3C5 : 00;
 3C6 : 19;
 3C7 : 18;
 3C8 : c0;
 3C9 : 80;
 3CA : 40;
 3CB : 00;
 3CC : 00;
 3CD : 60;
 3CE : 58;
 3CF : 1b;
 3D0 : 00;
 3D1 : 00;
 3D2 : 00;
 3D3 : 08;
 3D4 : 00;
 3D5 : 00;
 3D6 : 98;
 3D7 : 18;
 3D8 : 09;
 3D9 : 04;
 3DA : 04;
 3DB : 05;
 3DC : 01;
 3DD : 02;
 3DE : 18;
 3DF : 98;
 3E0 : 00;
 3E1 : 00;
 3E2 : 00;
 3E3 : 00;
 3E4 : 00;
 3E5 : 00;
 3E6 : 18;
 3E7 : 18;
 3E8 : 00;
 3E9 : 00;
 3EA : 00;
 3EB : 00;
 3EC : 00;
 3ED : 00;
 3EE : 18;
 3EF : 18;
 3F0 : 00;
 3F1 : 00;
 3F2 : 00;
 3F3 : 00;
 3F4 : 00;
 3F5 : 00;
 3F6 : 18;
 3F7 : 18;
 3F8 : 00;
 3F9 : 00;
 3FA : 00;
 3FB : 00;
 3FC : 00;
 3FD : 00;
 3FE : 18;
 3FF : 18;
 400 : 0f;
 401 : 1f;
 402 : 01;
 403 : 01;
 404 : 01;
 405 : 00;
 406 : 00;
 407 : 03;
 408 : 0f;
 409 : 1f;
 40A : 0f;
 40B : 0b;
 40C : 1b;
 40D : 0f;
 40E : 07;
 40F : 30;
 410 : d0;
 411 : e0;
 412 : f0;
 413 : f0;
 414 : f0;
 415 : e0;
 416 : 00;
 417 : e0;
 418 : c0;
 419 : c0;
 41A : 30;
 41B : 30;
 41C : f0;
 41D : e0;
 41E : c0;
 41F : 40;
 420 : 0f;
 421 : 1f;
 422 : 01;
 423 : 01;
 424 : 01;
 425 : 00;
 426 : 00;
 427 : 03;
 428 : 0f;
 429 : 1f;
 42A : 0f;
 42B : 0b;
 42C : 1b;
 42D : 0f;
 42E : 07;
 42F : 00;
 430 : d0;
 431 : e0;
 432 : f0;
 433 : f0;
 434 : f0;
 435 : e0;
 436 : 00;
 437 : e0;
 438 : c0;
 439 : c0;
 43A : 30;
 43B : 30;
 43C : f0;
 43D : e0;
 43E : c0;
 43F : 80;
 440 : 00;
 441 : 0f;
 442 : 1f;
 443 : 01;
 444 : 01;
 445 : 01;
 446 : 00;
 447 : 00;
 448 : 00;
 449 : 0f;
 44A : 1f;
 44B : 0f;
 44C : 0b;
 44D : 1b;
 44E : 0f;
 44F : 07;
 450 : 00;
 451 : d0;
 452 : e0;
 453 : f0;
 454 : f0;
 455 : f0;
 456 : e0;
 457 : 00;
 458 : 00;
 459 : c0;
 45A : c0;
 45B : 30;
 45C : 30;
 45D : f0;
 45E : e0;
 45F : c0;
 460 : 00;
 461 : 00;
 462 : 00;
 463 : 77;
 464 : 55;
 465 : 55;
 466 : 55;
 467 : 77;
 468 : 00;
 469 : 00;
 46A : 00;
 46B : 77;
 46C : 55;
 46D : 55;
 46E : 55;
 46F : 77;
 470 : 00;
 471 : 00;
 472 : 00;
 473 : 70;
 474 : 50;
 475 : 50;
 476 : 50;
 477 : 70;
 478 : 00;
 479 : 00;
 47A : 00;
 47B : 70;
 47C : 50;
 47D : 50;
 47E : 50;
 47F : 70;
 480 : 00;
 481 : 0c;
 482 : 12;
 483 : 21;
 484 : 2e;
 485 : 2e;
 486 : 1e;
 487 : 1e;
 488 : 00;
 489 : 00;
 48A : 0c;
 48B : 1e;
 48C : 1f;
 48D : 1f;
 48E : 0b;
 48F : 0f;
 490 : 00;
 491 : 30;
 492 : 48;
 493 : 84;
 494 : 74;
 495 : 74;
 496 : 78;
 497 : 78;
 498 : 00;
 499 : 00;
 49A : 30;
 49B : 78;
 49C : f8;
 49D : f8;
 49E : d0;
 49F : f0;
 4A0 : 00;
 4A1 : 00;
 4A2 : 00;
 4A3 : 00;
 4A4 : 0e;
 4A5 : 0e;
 4A6 : 06;
 4A7 : 02;
 4A8 : 00;
 4A9 : 00;
 4AA : 04;
 4AB : 0e;
 4AC : 0f;
 4AD : 0d;
 4AE : 07;
 4AF : 03;
 4B0 : 00;
 4B1 : 00;
 4B2 : 00;
 4B3 : 00;
 4B4 : 70;
 4B5 : 70;
 4B6 : 60;
 4B7 : 40;
 4B8 : 00;
 4B9 : 00;
 4BA : 20;
 4BB : 70;
 4BC : f0;
 4BD : b0;
 4BE : e0;
 4BF : c0;
 4C0 : 00;
 4C1 : 00;
 4C2 : 00;
 4C3 : 00;
 4C4 : 06;
 4C5 : 06;
 4C6 : 02;
 4C7 : 00;
 4C8 : 00;
 4C9 : 00;
 4CA : 00;
 4CB : 04;
 4CC : 06;
 4CD : 05;
 4CE : 03;
 4CF : 01;
 4D0 : 00;
 4D1 : 00;
 4D2 : 00;
 4D3 : 00;
 4D4 : 60;
 4D5 : 60;
 4D6 : 40;
 4D7 : 00;
 4D8 : 00;
 4D9 : 00;
 4DA : 00;
 4DB : 20;
 4DC : 60;
 4DD : a0;
 4DE : c0;
 4DF : 80;
 4E0 : 00;
 4E1 : 00;
 4E2 : 00;
 4E3 : 00;
 4E4 : 0c;
 4E5 : 04;
 4E6 : 00;
 4E7 : 00;
 4E8 : 00;
 4E9 : 00;
 4EA : 00;
 4EB : 00;
 4EC : 0c;
 4ED : 06;
 4EE : 00;
 4EF : 00;
 4F0 : 00;
 4F1 : 00;
 4F2 : 00;
 4F3 : 00;
 4F4 : 30;
 4F5 : 20;
 4F6 : 00;
 4F7 : 00;
 4F8 : 00;
 4F9 : 00;
 4FA : 00;
 4FB : 00;
 4FC : 30;
 4FD : 60;
 4FE : 00;
 4FF : 00;
 500 : 0f;
 501 : 1f;
 502 : 27;
 503 : 3f;
 504 : 3f;
 505 : 3c;
 506 : 00;
 507 : 00;
 508 : 30;
 509 : 00;
 50A : 04;
 50B : 0f;
 50C : 0f;
 50D : 0c;
 50E : 00;
 50F : 00;
 510 : f0;
 511 : e0;
 512 : e0;
 513 : e0;
 514 : f0;
 515 : f8;
 516 : 30;
 517 : 60;
 518 : 48;
 519 : 58;
 51A : e0;
 51B : e0;
 51C : f0;
 51D : e0;
 51E : 00;
 51F : 00;
 520 : 07;
 521 : 0f;
 522 : 0b;
 523 : 0e;
 524 : 06;
 525 : 06;
 526 : 0e;
 527 : 01;
 528 : 01;
 529 : 31;
 52A : 3f;
 52B : 0f;
 52C : 07;
 52D : 00;
 52E : 00;
 52F : 00;
 530 : e0;
 531 : e0;
 532 : 60;
 533 : 60;
 534 : 60;
 535 : c0;
 536 : c0;
 537 : c0;
 538 : 00;
 539 : 80;
 53A : e0;
 53B : e0;
 53C : e0;
 53D : c0;
 53E : 00;
 53F : 00;
 540 : 03;
 541 : 07;
 542 : 0f;
 543 : 0e;
 544 : 07;
 545 : 03;
 546 : 01;
 547 : 03;
 548 : 00;
 549 : 31;
 54A : 33;
 54B : 07;
 54C : 07;
 54D : 03;
 54E : 00;
 54F : 00;
 550 : e0;
 551 : f0;
 552 : e0;
 553 : e0;
 554 : f8;
 555 : bc;
 556 : 84;
 557 : 80;
 558 : 80;
 559 : 00;
 55A : 18;
 55B : f8;
 55C : f0;
 55D : b0;
 55E : 00;
 55F : 00;
 560 : 00;
 561 : 00;
 562 : 00;
 563 : 00;
 564 : 00;
 565 : 00;
 566 : 00;
 567 : 00;
 568 : 00;
 569 : 00;
 56A : 00;
 56B : 00;
 56C : 00;
 56D : 00;
 56E : 00;
 56F : 00;
 570 : 00;
 571 : 00;
 572 : 00;
 573 : 00;
 574 : 00;
 575 : 00;
 576 : 00;
 577 : 00;
 578 : 00;
 579 : 00;
 57A : 00;
 57B : 00;
 57C : 00;
 57D : 00;
 57E : 00;
 57F : 00;
 580 : 11;
 581 : 13;
 582 : 23;
 583 : 20;
 584 : 21;
 585 : 12;
 586 : 0c;
 587 : 00;
 588 : 0e;
 589 : 0c;
 58A : 1c;
 58B : 1f;
 58C : 1e;
 58D : 0c;
 58E : 00;
 58F : 00;
 590 : 88;
 591 : c8;
 592 : c4;
 593 : 04;
 594 : 84;
 595 : 48;
 596 : 30;
 597 : 00;
 598 : 70;
 599 : 30;
 59A : 38;
 59B : f8;
 59C : 78;
 59D : 30;
 59E : 00;
 59F : 00;
 5A0 : 01;
 5A1 : 03;
 5A2 : 00;
 5A3 : 00;
 5A4 : 00;
 5A5 : 00;
 5A6 : 00;
 5A7 : 00;
 5A8 : 02;
 5A9 : 04;
 5AA : 0f;
 5AB : 0e;
 5AC : 0c;
 5AD : 00;
 5AE : 00;
 5AF : 00;
 5B0 : 80;
 5B1 : c0;
 5B2 : 00;
 5B3 : 00;
 5B4 : 00;
 5B5 : 00;
 5B6 : 00;
 5B7 : 00;
 5B8 : 40;
 5B9 : 20;
 5BA : f0;
 5BB : 70;
 5BC : 30;
 5BD : 00;
 5BE : 00;
 5BF : 00;
 5C0 : 01;
 5C1 : 00;
 5C2 : 00;
 5C3 : 00;
 5C4 : 00;
 5C5 : 00;
 5C6 : 00;
 5C7 : 00;
 5C8 : 02;
 5C9 : 07;
 5CA : 06;
 5CB : 04;
 5CC : 00;
 5CD : 00;
 5CE : 00;
 5CF : 00;
 5D0 : 80;
 5D1 : 00;
 5D2 : 00;
 5D3 : 00;
 5D4 : 00;
 5D5 : 00;
 5D6 : 00;
 5D7 : 00;
 5D8 : 40;
 5D9 : e0;
 5DA : 60;
 5DB : 20;
 5DC : 00;
 5DD : 00;
 5DE : 00;
 5DF : 00;
 5E0 : 00;
 5E1 : 00;
 5E2 : 00;
 5E3 : 00;
 5E4 : 00;
 5E5 : 00;
 5E6 : 00;
 5E7 : 00;
 5E8 : 00;
 5E9 : 06;
 5EA : 0c;
 5EB : 00;
 5EC : 00;
 5ED : 00;
 5EE : 00;
 5EF : 00;
 5F0 : 00;
 5F1 : 00;
 5F2 : 00;
 5F3 : 00;
 5F4 : 00;
 5F5 : 00;
 5F6 : 00;
 5F7 : 00;
 5F8 : 00;
 5F9 : 60;
 5FA : 30;
 5FB : 00;
 5FC : 00;
 5FD : 00;
 5FE : 00;
 5FF : 00;
 600 : 07;
 601 : 1c;
 602 : 30;
 603 : 60;
 604 : 40;
 605 : 46;
 606 : 46;
 607 : 46;
 608 : 00;
 609 : 03;
 60A : 0f;
 60B : 1f;
 60C : 3f;
 60D : 3f;
 60E : 3d;
 60F : 3d;
 610 : e0;
 611 : 38;
 612 : 0c;
 613 : 06;
 614 : 02;
 615 : 62;
 616 : 62;
 617 : 62;
 618 : 00;
 619 : c0;
 61A : f0;
 61B : f8;
 61C : fc;
 61D : fc;
 61E : dc;
 61F : dc;
 620 : 0f;
 621 : 38;
 622 : 20;
 623 : 60;
 624 : 40;
 625 : 46;
 626 : 46;
 627 : 46;
 628 : 00;
 629 : 07;
 62A : 1f;
 62B : 1f;
 62C : 3f;
 62D : 3f;
 62E : 3d;
 62F : 3d;
 630 : f0;
 631 : 1c;
 632 : 04;
 633 : 06;
 634 : 02;
 635 : 62;
 636 : 62;
 637 : 62;
 638 : 00;
 639 : e0;
 63A : f8;
 63B : f8;
 63C : fc;
 63D : fc;
 63E : dc;
 63F : dc;
 640 : 0f;
 641 : 38;
 642 : 60;
 643 : c0;
 644 : 86;
 645 : 86;
 646 : 86;
 647 : c0;
 648 : 00;
 649 : 07;
 64A : 1f;
 64B : 3f;
 64C : 7f;
 64D : 7d;
 64E : 7d;
 64F : 3f;
 650 : f0;
 651 : 1c;
 652 : 06;
 653 : 03;
 654 : 61;
 655 : 61;
 656 : 61;
 657 : 03;
 658 : 00;
 659 : e0;
 65A : f8;
 65B : fc;
 65C : fe;
 65D : de;
 65E : de;
 65F : fc;
 660 : 07;
 661 : 1c;
 662 : 30;
 663 : 6a;
 664 : 4e;
 665 : 4e;
 666 : 4e;
 667 : 4e;
 668 : 00;
 669 : 03;
 66A : 0f;
 66B : 15;
 66C : 3f;
 66D : 3b;
 66E : 3b;
 66F : 3f;
 670 : e0;
 671 : 38;
 672 : 0c;
 673 : 56;
 674 : 72;
 675 : 72;
 676 : 72;
 677 : 72;
 678 : 00;
 679 : c0;
 67A : f0;
 67B : a8;
 67C : fc;
 67D : dc;
 67E : dc;
 67F : fc;
 680 : 01;
 681 : 03;
 682 : 03;
 683 : 07;
 684 : 1d;
 685 : 38;
 686 : 40;
 687 : 96;
 688 : 00;
 689 : 01;
 68A : 01;
 68B : 03;
 68C : 07;
 68D : 1f;
 68E : 3f;
 68F : 7f;
 690 : 80;
 691 : c0;
 692 : e0;
 693 : e0;
 694 : 38;
 695 : 9c;
 696 : 02;
 697 : 61;
 698 : 00;
 699 : 80;
 69A : c0;
 69B : c0;
 69C : e0;
 69D : f8;
 69E : fc;
 69F : fe;
 6A0 : 00;
 6A1 : 01;
 6A2 : 03;
 6A3 : 07;
 6A4 : 1d;
 6A5 : 38;
 6A6 : 40;
 6A7 : 96;
 6A8 : 00;
 6A9 : 00;
 6AA : 01;
 6AB : 03;
 6AC : 07;
 6AD : 1f;
 6AE : 3f;
 6AF : 7f;
 6B0 : e0;
 6B1 : d0;
 6B2 : 90;
 6B3 : e0;
 6B4 : 38;
 6B5 : 9c;
 6B6 : 02;
 6B7 : 61;
 6B8 : 00;
 6B9 : e0;
 6BA : e0;
 6BB : c0;
 6BC : e0;
 6BD : f8;
 6BE : fc;
 6BF : fe;
 6C0 : 01;
 6C1 : 03;
 6C2 : 03;
 6C3 : 07;
 6C4 : 1d;
 6C5 : 38;
 6C6 : 40;
 6C7 : 96;
 6C8 : 00;
 6C9 : 01;
 6CA : 01;
 6CB : 03;
 6CC : 07;
 6CD : 1f;
 6CE : 3f;
 6CF : 7d;
 6D0 : 80;
 6D1 : c0;
 6D2 : e0;
 6D3 : e0;
 6D4 : 38;
 6D5 : 9c;
 6D6 : 02;
 6D7 : 61;
 6D8 : 00;
 6D9 : 80;
 6DA : c0;
 6DB : c0;
 6DC : e0;
 6DD : f8;
 6DE : fc;
 6DF : de;
 6E0 : 01;
 6E1 : 03;
 6E2 : 03;
 6E3 : 07;
 6E4 : 1d;
 6E5 : 30;
 6E6 : 4e;
 6E7 : 8e;
 6E8 : 00;
 6E9 : 01;
 6EA : 01;
 6EB : 03;
 6EC : 07;
 6ED : 1f;
 6EE : 3f;
 6EF : 7b;
 6F0 : 80;
 6F1 : c0;
 6F2 : e0;
 6F3 : e0;
 6F4 : 38;
 6F5 : 9c;
 6F6 : 72;
 6F7 : 71;
 6F8 : 00;
 6F9 : 80;
 6FA : c0;
 6FB : c0;
 6FC : e0;
 6FD : f8;
 6FE : fc;
 6FF : de;
 700 : 40;
 701 : 60;
 702 : 31;
 703 : 18;
 704 : 0c;
 705 : 06;
 706 : 03;
 707 : 03;
 708 : 3f;
 709 : 1f;
 70A : 0e;
 70B : 07;
 70C : 03;
 70D : 01;
 70E : 01;
 70F : 00;
 710 : 02;
 711 : 06;
 712 : 8c;
 713 : 18;
 714 : 30;
 715 : 60;
 716 : c0;
 717 : c0;
 718 : fc;
 719 : f8;
 71A : 70;
 71B : e0;
 71C : c0;
 71D : 80;
 71E : 80;
 71F : 00;
 720 : 60;
 721 : 20;
 722 : 31;
 723 : 18;
 724 : 0e;
 725 : 03;
 726 : 03;
 727 : 00;
 728 : 1f;
 729 : 1f;
 72A : 0e;
 72B : 07;
 72C : 01;
 72D : 01;
 72E : 00;
 72F : 00;
 730 : 06;
 731 : 04;
 732 : 8c;
 733 : 18;
 734 : 70;
 735 : c0;
 736 : c0;
 737 : 00;
 738 : f8;
 739 : f8;
 73A : 70;
 73B : e0;
 73C : 80;
 73D : 80;
 73E : 00;
 73F : 00;
 740 : 40;
 741 : 61;
 742 : 38;
 743 : 0e;
 744 : 03;
 745 : 03;
 746 : 00;
 747 : 00;
 748 : 3f;
 749 : 1e;
 74A : 07;
 74B : 01;
 74C : 01;
 74D : 00;
 74E : 00;
 74F : 00;
 750 : 02;
 751 : 86;
 752 : 1c;
 753 : 70;
 754 : c0;
 755 : c0;
 756 : 00;
 757 : 00;
 758 : fc;
 759 : 78;
 75A : e0;
 75B : 80;
 75C : 80;
 75D : 00;
 75E : 00;
 75F : 00;
 760 : 40;
 761 : 63;
 762 : 33;
 763 : 19;
 764 : 0c;
 765 : 06;
 766 : 03;
 767 : 03;
 768 : 3f;
 769 : 1c;
 76A : 0c;
 76B : 06;
 76C : 03;
 76D : 01;
 76E : 01;
 76F : 00;
 770 : 02;
 771 : c6;
 772 : cc;
 773 : 98;
 774 : 30;
 775 : 60;
 776 : c0;
 777 : c0;
 778 : fc;
 779 : 38;
 77A : 30;
 77B : 60;
 77C : c0;
 77D : 80;
 77E : 80;
 77F : 00;
 780 : a6;
 781 : a6;
 782 : 80;
 783 : 41;
 784 : 20;
 785 : 1f;
 786 : 22;
 787 : 3e;
 788 : 7d;
 789 : 7d;
 78A : 7f;
 78B : 3e;
 78C : 1f;
 78D : 00;
 78E : 1c;
 78F : 00;
 790 : 61;
 791 : 61;
 792 : 01;
 793 : 82;
 794 : 3c;
 795 : c4;
 796 : 7c;
 797 : 00;
 798 : de;
 799 : de;
 79A : fe;
 79B : 7c;
 79C : c0;
 79D : 38;
 79E : 00;
 79F : 00;
 7A0 : a6;
 7A1 : a6;
 7A2 : 80;
 7A3 : 41;
 7A4 : 20;
 7A5 : 1f;
 7A6 : 22;
 7A7 : 3e;
 7A8 : 7d;
 7A9 : 7d;
 7AA : 7f;
 7AB : 3e;
 7AC : 1f;
 7AD : 00;
 7AE : 1c;
 7AF : 00;
 7B0 : 61;
 7B1 : 61;
 7B2 : 01;
 7B3 : 82;
 7B4 : 0c;
 7B5 : f8;
 7B6 : 44;
 7B7 : 7c;
 7B8 : de;
 7B9 : de;
 7BA : fe;
 7BB : 7c;
 7BC : f0;
 7BD : 00;
 7BE : 38;
 7BF : 00;
 7C0 : a6;
 7C1 : a6;
 7C2 : 80;
 7C3 : 41;
 7C4 : 3c;
 7C5 : 23;
 7C6 : 3e;
 7C7 : 00;
 7C8 : 7d;
 7C9 : 7f;
 7CA : 7f;
 7CB : 3e;
 7CC : 03;
 7CD : 1c;
 7CE : 00;
 7CF : 00;
 7D0 : 61;
 7D1 : 61;
 7D2 : 01;
 7D3 : 82;
 7D4 : 0c;
 7D5 : f8;
 7D6 : 44;
 7D7 : 7c;
 7D8 : de;
 7D9 : fe;
 7DA : fe;
 7DB : 7c;
 7DC : f0;
 7DD : 00;
 7DE : 38;
 7DF : 00;
 7E0 : ae;
 7E1 : ae;
 7E2 : 83;
 7E3 : 43;
 7E4 : 20;
 7E5 : 1f;
 7E6 : 22;
 7E7 : 3e;
 7E8 : 7b;
 7E9 : 7f;
 7EA : 7c;
 7EB : 3c;
 7EC : 1f;
 7ED : 00;
 7EE : 1c;
 7EF : 00;
 7F0 : 71;
 7F1 : 71;
 7F2 : c1;
 7F3 : c2;
 7F4 : 0c;
 7F5 : f8;
 7F6 : 44;
 7F7 : 7c;
 7F8 : de;
 7F9 : fe;
 7FA : 3e;
 7FB : 3c;
 7FC : f0;
 7FD : 00;
 7FE : 38;
 7FF : 18;
 800 : 1f;
 801 : 10;
 802 : 20;
 803 : 3f;
 804 : 40;
 805 : 46;
 806 : 76;
 807 : 46;
 808 : 00;
 809 : 0f;
 80A : 1f;
 80B : 00;
 80C : 3f;
 80D : 3f;
 80E : 0d;
 80F : 3d;
 810 : f8;
 811 : 08;
 812 : 04;
 813 : fc;
 814 : 02;
 815 : 62;
 816 : 6e;
 817 : 62;
 818 : 00;
 819 : f0;
 81A : f8;
 81B : 00;
 81C : fc;
 81D : fc;
 81E : d0;
 81F : dc;
 820 : 1f;
 821 : 20;
 822 : 3f;
 823 : 40;
 824 : 46;
 825 : 76;
 826 : 46;
 827 : 46;
 828 : 00;
 829 : 1f;
 82A : 00;
 82B : 3f;
 82C : 3f;
 82D : 0d;
 82E : 3d;
 82F : 3d;
 830 : f8;
 831 : 04;
 832 : fc;
 833 : 02;
 834 : 62;
 835 : 6e;
 836 : 62;
 837 : 62;
 838 : 00;
 839 : f8;
 83A : 00;
 83B : fc;
 83C : fc;
 83D : d0;
 83E : dc;
 83F : dc;
 840 : 1f;
 841 : 60;
 842 : ff;
 843 : 86;
 844 : f6;
 845 : 86;
 846 : f6;
 847 : 80;
 848 : 00;
 849 : 1f;
 84A : 00;
 84B : 7f;
 84C : 0d;
 84D : 7d;
 84E : 0d;
 84F : 7f;
 850 : f8;
 851 : 06;
 852 : ff;
 853 : 61;
 854 : 6f;
 855 : 61;
 856 : 6f;
 857 : 01;
 858 : 00;
 859 : f8;
 85A : 00;
 85B : fe;
 85C : d0;
 85D : de;
 85E : d0;
 85F : fe;
 860 : 1f;
 861 : 10;
 862 : 20;
 863 : 3f;
 864 : 40;
 865 : 4e;
 866 : 7e;
 867 : 4e;
 868 : 00;
 869 : 0f;
 86A : 1f;
 86B : 00;
 86C : 3f;
 86D : 3f;
 86E : 0b;
 86F : 3b;
 870 : f8;
 871 : 08;
 872 : 04;
 873 : fc;
 874 : 02;
 875 : 72;
 876 : 7e;
 877 : 72;
 878 : 00;
 879 : f0;
 87A : f8;
 87B : 00;
 87C : fc;
 87D : fc;
 87E : d0;
 87F : dc;
 880 : 07;
 881 : 1c;
 882 : 30;
 883 : 60;
 884 : 40;
 885 : c6;
 886 : 86;
 887 : 86;
 888 : 00;
 889 : 03;
 88A : 0f;
 88B : 1f;
 88C : 3f;
 88D : 3f;
 88E : 7d;
 88F : 7d;
 890 : e0;
 891 : 38;
 892 : 0c;
 893 : 06;
 894 : 02;
 895 : 63;
 896 : 61;
 897 : 61;
 898 : 00;
 899 : c0;
 89A : f0;
 89B : f8;
 89C : fc;
 89D : fc;
 89E : de;
 89F : de;
 8A0 : 07;
 8A1 : 1c;
 8A2 : 30;
 8A3 : 60;
 8A4 : 40;
 8A5 : c6;
 8A6 : 86;
 8A7 : 86;
 8A8 : 00;
 8A9 : 03;
 8AA : 0f;
 8AB : 1f;
 8AC : 3f;
 8AD : 3f;
 8AE : 7d;
 8AF : 7d;
 8B0 : e0;
 8B1 : 38;
 8B2 : 0c;
 8B3 : 06;
 8B4 : 02;
 8B5 : 63;
 8B6 : 61;
 8B7 : 61;
 8B8 : 00;
 8B9 : c0;
 8BA : f0;
 8BB : f8;
 8BC : fc;
 8BD : fc;
 8BE : de;
 8BF : de;
 8C0 : 07;
 8C1 : 1c;
 8C2 : 30;
 8C3 : 60;
 8C4 : 46;
 8C5 : c6;
 8C6 : 86;
 8C7 : 86;
 8C8 : 00;
 8C9 : 03;
 8CA : 0f;
 8CB : 1f;
 8CC : 3f;
 8CD : 3d;
 8CE : 7d;
 8CF : 7d;
 8D0 : e0;
 8D1 : 38;
 8D2 : 0c;
 8D3 : 06;
 8D4 : 62;
 8D5 : 63;
 8D6 : 61;
 8D7 : 61;
 8D8 : 00;
 8D9 : c0;
 8DA : f0;
 8DB : f8;
 8DC : fc;
 8DD : dc;
 8DE : de;
 8DF : de;
 8E0 : 07;
 8E1 : 1c;
 8E2 : 30;
 8E3 : 60;
 8E4 : 40;
 8E5 : ce;
 8E6 : 8e;
 8E7 : 8e;
 8E8 : 00;
 8E9 : 03;
 8EA : 0f;
 8EB : 1f;
 8EC : 3f;
 8ED : 3f;
 8EE : 7b;
 8EF : 7f;
 8F0 : e0;
 8F1 : 38;
 8F2 : 0c;
 8F3 : 06;
 8F4 : 02;
 8F5 : 73;
 8F6 : 71;
 8F7 : 71;
 8F8 : 00;
 8F9 : c0;
 8FA : f0;
 8FB : f8;
 8FC : fc;
 8FD : fc;
 8FE : de;
 8FF : fe;
 900 : 46;
 901 : 70;
 902 : 40;
 903 : 41;
 904 : 3f;
 905 : 20;
 906 : 10;
 907 : 1f;
 908 : 3d;
 909 : 0f;
 90A : 3f;
 90B : 3e;
 90C : 00;
 90D : 1f;
 90E : 0f;
 90F : 00;
 910 : 62;
 911 : 0e;
 912 : 02;
 913 : 82;
 914 : fc;
 915 : 04;
 916 : 08;
 917 : f8;
 918 : dc;
 919 : f0;
 91A : fc;
 91B : 7c;
 91C : 00;
 91D : f8;
 91E : f0;
 91F : 00;
 920 : 70;
 921 : 40;
 922 : 41;
 923 : 3f;
 924 : 20;
 925 : 1f;
 926 : 00;
 927 : 00;
 928 : 0f;
 929 : 3f;
 92A : 3e;
 92B : 00;
 92C : 1f;
 92D : 00;
 92E : 00;
 92F : 00;
 930 : 0e;
 931 : 02;
 932 : 82;
 933 : fc;
 934 : 04;
 935 : f8;
 936 : 00;
 937 : 00;
 938 : f0;
 939 : fc;
 93A : 7c;
 93B : 00;
 93C : f8;
 93D : 00;
 93E : 00;
 93F : 00;
 940 : 81;
 941 : ff;
 942 : 60;
 943 : 1f;
 944 : 00;
 945 : 00;
 946 : 00;
 947 : 00;
 948 : 7e;
 949 : 00;
 94A : 1f;
 94B : 00;
 94C : 00;
 94D : 00;
 94E : 00;
 94F : 00;
 950 : 81;
 951 : ff;
 952 : 06;
 953 : f8;
 954 : 00;
 955 : 00;
 956 : 00;
 957 : 00;
 958 : 7e;
 959 : 00;
 95A : f8;
 95B : 00;
 95C : 00;
 95D : 00;
 95E : 00;
 95F : 00;
 960 : 4e;
 961 : 70;
 962 : 41;
 963 : 43;
 964 : 3f;
 965 : 21;
 966 : 10;
 967 : 1f;
 968 : 3f;
 969 : 0f;
 96A : 3e;
 96B : 3c;
 96C : 00;
 96D : 1e;
 96E : 0f;
 96F : 00;
 970 : 72;
 971 : 0e;
 972 : 82;
 973 : c2;
 974 : fc;
 975 : 84;
 976 : 08;
 977 : f8;
 978 : fc;
 979 : f0;
 97A : 7c;
 97B : 3c;
 97C : 00;
 97D : 78;
 97E : f0;
 97F : 00;
 980 : 80;
 981 : 80;
 982 : cf;
 983 : 4f;
 984 : 67;
 985 : 30;
 986 : 1c;
 987 : 07;
 988 : 7f;
 989 : 7f;
 98A : 31;
 98B : 30;
 98C : 18;
 98D : 0f;
 98E : 03;
 98F : 00;
 990 : 01;
 991 : 01;
 992 : f3;
 993 : f2;
 994 : e6;
 995 : 0c;
 996 : 38;
 997 : e0;
 998 : fe;
 999 : fe;
 99A : 4c;
 99B : 0c;
 99C : 18;
 99D : f0;
 99E : c0;
 99F : 00;
 9A0 : 80;
 9A1 : 80;
 9A2 : cf;
 9A3 : 47;
 9A4 : 60;
 9A5 : 30;
 9A6 : 1c;
 9A7 : 07;
 9A8 : 7f;
 9A9 : 7f;
 9AA : 31;
 9AB : 38;
 9AC : 1f;
 9AD : 0f;
 9AE : 03;
 9AF : 00;
 9B0 : 01;
 9B1 : 01;
 9B2 : f3;
 9B3 : e2;
 9B4 : 06;
 9B5 : 0c;
 9B6 : 38;
 9B7 : e0;
 9B8 : fe;
 9B9 : fe;
 9BA : 4c;
 9BB : 1c;
 9BC : f8;
 9BD : f0;
 9BE : c0;
 9BF : 00;
 9C0 : 80;
 9C1 : 90;
 9C2 : cf;
 9C3 : 47;
 9C4 : 60;
 9C5 : 30;
 9C6 : 1c;
 9C7 : 07;
 9C8 : 7f;
 9C9 : 6f;
 9CA : 31;
 9CB : 38;
 9CC : 1f;
 9CD : 0f;
 9CE : 03;
 9CF : 00;
 9D0 : 01;
 9D1 : 09;
 9D2 : f3;
 9D3 : e2;
 9D4 : 06;
 9D5 : 0c;
 9D6 : 38;
 9D7 : e0;
 9D8 : fe;
 9D9 : f6;
 9DA : 4c;
 9DB : 1c;
 9DC : f8;
 9DD : f0;
 9DE : c0;
 9DF : 00;
 9E0 : 80;
 9E1 : 83;
 9E2 : c7;
 9E3 : 47;
 9E4 : 67;
 9E5 : 33;
 9E6 : 1c;
 9E7 : 07;
 9E8 : 7f;
 9E9 : 7c;
 9EA : 3a;
 9EB : 38;
 9EC : 18;
 9ED : 0c;
 9EE : 03;
 9EF : 00;
 9F0 : 01;
 9F1 : c1;
 9F2 : e3;
 9F3 : e2;
 9F4 : e6;
 9F5 : cc;
 9F6 : 38;
 9F7 : e0;
 9F8 : fe;
 9F9 : 3e;
 9FA : 5c;
 9FB : 1c;
 9FC : 18;
 9FD : 30;
 9FE : c0;
 9FF : 00;
 A00 : 01;
 A01 : 02;
 A02 : 65;
 A03 : 9a;
 A04 : a2;
 A05 : a0;
 A06 : 43;
 A07 : 43;
 A08 : 00;
 A09 : 01;
 A0A : 03;
 A0B : 67;
 A0C : 7f;
 A0D : 7f;
 A0E : 3f;
 A0F : 3e;
 A10 : c0;
 A11 : 20;
 A12 : 18;
 A13 : 04;
 A14 : 02;
 A15 : 02;
 A16 : 62;
 A17 : 62;
 A18 : 00;
 A19 : c0;
 A1A : e0;
 A1B : f8;
 A1C : fc;
 A1D : fc;
 A1E : fc;
 A1F : dc;
 A20 : 0e;
 A21 : 11;
 A22 : 21;
 A23 : 22;
 A24 : 62;
 A25 : a0;
 A26 : 43;
 A27 : 43;
 A28 : 00;
 A29 : 0e;
 A2A : 1f;
 A2B : 1f;
 A2C : 3f;
 A2D : 7f;
 A2E : 3f;
 A2F : 3e;
 A30 : 3c;
 A31 : c2;
 A32 : 01;
 A33 : 01;
 A34 : 01;
 A35 : 01;
 A36 : 61;
 A37 : 62;
 A38 : 00;
 A39 : 3c;
 A3A : fe;
 A3B : fe;
 A3C : fe;
 A3D : fe;
 A3E : fe;
 A3F : dc;
 A40 : 3c;
 A41 : 53;
 A42 : 81;
 A43 : 82;
 A44 : 62;
 A45 : 60;
 A46 : 83;
 A47 : 83;
 A48 : 00;
 A49 : 3c;
 A4A : 7f;
 A4B : 7f;
 A4C : 3f;
 A4D : 3f;
 A4E : 7f;
 A4F : 7e;
 A50 : fc;
 A51 : 02;
 A52 : 01;
 A53 : 01;
 A54 : 01;
 A55 : 02;
 A56 : 62;
 A57 : 62;
 A58 : 00;
 A59 : fc;
 A5A : fe;
 A5B : fe;
 A5C : fe;
 A5D : fc;
 A5E : fc;
 A5F : dc;
 A60 : 39;
 A61 : 56;
 A62 : 80;
 A63 : 80;
 A64 : 67;
 A65 : 67;
 A66 : 87;
 A67 : 87;
 A68 : 00;
 A69 : 39;
 A6A : 7f;
 A6B : 7f;
 A6C : 3f;
 A6D : 3d;
 A6E : 7d;
 A6F : 7f;
 A70 : cc;
 A71 : 32;
 A72 : 01;
 A73 : 01;
 A74 : 72;
 A75 : 72;
 A76 : 71;
 A77 : 71;
 A78 : 00;
 A79 : cc;
 A7A : fe;
 A7B : fe;
 A7C : fc;
 A7D : dc;
 A7E : de;
 A7F : fe;
 A80 : 03;
 A81 : 0c;
 A82 : 10;
 A83 : 10;
 A84 : 20;
 A85 : 26;
 A86 : 26;
 A87 : 26;
 A88 : 00;
 A89 : 03;
 A8A : 0f;
 A8B : 0f;
 A8C : 1f;
 A8D : 1f;
 A8E : 1d;
 A8F : 1d;
 A90 : c0;
 A91 : 30;
 A92 : 08;
 A93 : 08;
 A94 : 04;
 A95 : c4;
 A96 : c4;
 A97 : c4;
 A98 : 00;
 A99 : c0;
 A9A : f0;
 A9B : f0;
 A9C : f8;
 A9D : f8;
 A9E : b8;
 A9F : b8;
 AA0 : 03;
 AA1 : 0c;
 AA2 : 10;
 AA3 : 10;
 AA4 : 20;
 AA5 : 26;
 AA6 : 26;
 AA7 : 26;
 AA8 : 00;
 AA9 : 03;
 AAA : 0f;
 AAB : 0f;
 AAC : 1f;
 AAD : 1f;
 AAE : 1d;
 AAF : 1d;
 AB0 : c0;
 AB1 : 30;
 AB2 : 08;
 AB3 : 08;
 AB4 : 04;
 AB5 : c4;
 AB6 : c4;
 AB7 : c4;
 AB8 : 00;
 AB9 : c0;
 ABA : f0;
 ABB : f0;
 ABC : f8;
 ABD : f8;
 ABE : b8;
 ABF : b8;
 AC0 : 00;
 AC1 : 01;
 AC2 : 02;
 AC3 : 04;
 AC4 : 08;
 AC5 : 09;
 AC6 : 11;
 AC7 : 11;
 AC8 : 00;
 AC9 : 00;
 ACA : 01;
 ACB : 03;
 ACC : 07;
 ACD : 07;
 ACE : 0f;
 ACF : 0f;
 AD0 : 60;
 AD1 : 98;
 AD2 : 04;
 AD3 : 02;
 AD4 : 01;
 AD5 : b1;
 AD6 : b1;
 AD7 : b1;
 AD8 : 00;
 AD9 : 60;
 ADA : f8;
 ADB : fc;
 ADC : fe;
 ADD : fe;
 ADE : 6e;
 ADF : 6e;
 AE0 : 03;
 AE1 : 0c;
 AE2 : 10;
 AE3 : 10;
 AE4 : 2e;
 AE5 : 2e;
 AE6 : 2e;
 AE7 : 2e;
 AE8 : 00;
 AE9 : 03;
 AEA : 0f;
 AEB : 0f;
 AEC : 1f;
 AED : 1b;
 AEE : 1b;
 AEF : 1f;
 AF0 : c0;
 AF1 : 30;
 AF2 : 08;
 AF3 : 08;
 AF4 : 74;
 AF5 : 74;
 AF6 : 74;
 AF7 : 74;
 AF8 : 00;
 AF9 : c0;
 AFA : f0;
 AFB : f0;
 AFC : f8;
 AFD : d8;
 AFE : d8;
 AFF : f8;
 B00 : 53;
 B01 : 50;
 B02 : a0;
 B03 : a0;
 B04 : a0;
 B05 : 86;
 B06 : 49;
 B07 : 30;
 B08 : 3e;
 B09 : 3f;
 B0A : 7f;
 B0B : 7f;
 B0C : 7f;
 B0D : 79;
 B0E : 30;
 B0F : 00;
 B10 : 62;
 B11 : 02;
 B12 : 01;
 B13 : c1;
 B14 : c1;
 B15 : 02;
 B16 : 8c;
 B17 : 70;
 B18 : dc;
 B19 : fc;
 B1A : fe;
 B1B : 3e;
 B1C : 3e;
 B1D : fc;
 B1E : 70;
 B1F : 00;
 B20 : 53;
 B21 : 50;
 B22 : a0;
 B23 : a0;
 B24 : a0;
 B25 : 80;
 B26 : 4e;
 B27 : 31;
 B28 : 3e;
 B29 : 3f;
 B2A : 7f;
 B2B : 7f;
 B2C : 7f;
 B2D : 7f;
 B2E : 31;
 B2F : 00;
 B30 : 62;
 B31 : 02;
 B32 : 02;
 B33 : c2;
 B34 : 02;
 B35 : 06;
 B36 : 3c;
 B37 : c0;
 B38 : dc;
 B39 : fc;
 B3A : fc;
 B3B : 3c;
 B3C : fc;
 B3D : f8;
 B3E : c0;
 B3F : 00;
 B40 : 93;
 B41 : 50;
 B42 : 60;
 B43 : 60;
 B44 : 60;
 B45 : 60;
 B46 : 38;
 B47 : 07;
 B48 : 7e;
 B49 : 3f;
 B4A : 3f;
 B4B : 3f;
 B4C : 3f;
 B4D : 1f;
 B4E : 07;
 B4F : 00;
 B50 : 62;
 B51 : 02;
 B52 : 01;
 B53 : c1;
 B54 : c1;
 B55 : 02;
 B56 : 7c;
 B57 : 80;
 B58 : dc;
 B59 : fc;
 B5A : fe;
 B5B : 3e;
 B5C : 3e;
 B5D : fc;
 B5E : 80;
 B5F : 00;
 B60 : 97;
 B61 : 50;
 B62 : 61;
 B63 : a3;
 B64 : a3;
 B65 : 41;
 B66 : 24;
 B67 : 1b;
 B68 : 7f;
 B69 : 3f;
 B6A : 3e;
 B6B : 7c;
 B6C : 7c;
 B6D : 3e;
 B6E : 1b;
 B6F : 00;
 B70 : 71;
 B71 : 02;
 B72 : c2;
 B73 : e1;
 B74 : e1;
 B75 : c2;
 B76 : 90;
 B77 : 6c;
 B78 : fe;
 B79 : fc;
 B7A : 3c;
 B7B : 1e;
 B7C : 1e;
 B7D : 3c;
 B7E : 6c;
 B7F : 00;
 B80 : 20;
 B81 : 20;
 B82 : 27;
 B83 : 23;
 B84 : 20;
 B85 : 40;
 B86 : 46;
 B87 : 79;
 B88 : 1f;
 B89 : 1f;
 B8A : 18;
 B8B : 1c;
 B8C : 1f;
 B8D : 3f;
 B8E : 39;
 B8F : 00;
 B90 : 04;
 B91 : 04;
 B92 : c4;
 B93 : 84;
 B94 : 04;
 B95 : 02;
 B96 : 72;
 B97 : 8e;
 B98 : f8;
 B99 : f8;
 B9A : 38;
 B9B : 78;
 B9C : f8;
 B9D : fc;
 B9E : 8c;
 B9F : 00;
 BA0 : 20;
 BA1 : 20;
 BA2 : 27;
 BA3 : 23;
 BA4 : 20;
 BA5 : 40;
 BA6 : 31;
 BA7 : 0e;
 BA8 : 1f;
 BA9 : 1f;
 BAA : 18;
 BAB : 1c;
 BAC : 1f;
 BAD : 3f;
 BAE : 0e;
 BAF : 00;
 BB0 : 04;
 BB1 : 04;
 BB2 : c4;
 BB3 : 84;
 BB4 : 04;
 BB5 : 02;
 BB6 : 8c;
 BB7 : 70;
 BB8 : f8;
 BB9 : f8;
 BBA : 38;
 BBB : 78;
 BBC : f8;
 BBD : fc;
 BBE : 70;
 BBF : 00;
 BC0 : 10;
 BC1 : 20;
 BC2 : 60;
 BC3 : 80;
 BC4 : 40;
 BC5 : 61;
 BC6 : 1e;
 BC7 : 00;
 BC8 : 0f;
 BC9 : 1f;
 BCA : 1f;
 BCB : 7f;
 BCC : 3f;
 BCD : 1e;
 BCE : 00;
 BCF : 00;
 BD0 : 01;
 BD1 : 02;
 BD2 : 02;
 BD3 : 04;
 BD4 : 08;
 BD5 : 90;
 BD6 : 60;
 BD7 : 00;
 BD8 : fe;
 BD9 : fc;
 BDA : fc;
 BDB : f8;
 BDC : f0;
 BDD : 60;
 BDE : 00;
 BDF : 00;
 BE0 : 20;
 BE1 : 21;
 BE2 : 23;
 BE3 : 23;
 BE4 : 21;
 BE5 : 40;
 BE6 : 46;
 BE7 : 79;
 BE8 : 1f;
 BE9 : 1e;
 BEA : 1c;
 BEB : 1c;
 BEC : 1e;
 BED : 3f;
 BEE : 39;
 BEF : 00;
 BF0 : 04;
 BF1 : 84;
 BF2 : c4;
 BF3 : c4;
 BF4 : 84;
 BF5 : 02;
 BF6 : 72;
 BF7 : 8e;
 BF8 : f8;
 BF9 : 78;
 BFA : 38;
 BFB : 38;
 BFC : 78;
 BFD : fc;
 BFE : 8c;
 BFF : 00;
 C00 : 33;
 C01 : 4c;
 C02 : b0;
 C03 : a0;
 C04 : 46;
 C05 : 46;
 C06 : 86;
 C07 : b0;
 C08 : 00;
 C09 : 33;
 C0A : 7f;
 C0B : 7f;
 C0C : 3f;
 C0D : 3d;
 C0E : 7d;
 C0F : 7f;
 C10 : cc;
 C11 : 32;
 C12 : 0d;
 C13 : 05;
 C14 : 62;
 C15 : 62;
 C16 : 61;
 C17 : 0d;
 C18 : 00;
 C19 : cc;
 C1A : fe;
 C1B : fe;
 C1C : fc;
 C1D : dc;
 C1E : de;
 C1F : fe;
 C20 : 33;
 C21 : 4c;
 C22 : b0;
 C23 : a0;
 C24 : 46;
 C25 : 46;
 C26 : 86;
 C27 : b0;
 C28 : 00;
 C29 : 33;
 C2A : 7f;
 C2B : 7f;
 C2C : 3f;
 C2D : 3d;
 C2E : 7d;
 C2F : 7f;
 C30 : cc;
 C31 : 32;
 C32 : 0d;
 C33 : 05;
 C34 : 62;
 C35 : 62;
 C36 : 61;
 C37 : 0d;
 C38 : 00;
 C39 : cc;
 C3A : fe;
 C3B : fe;
 C3C : fc;
 C3D : dc;
 C3E : de;
 C3F : fe;
 C40 : 03;
 C41 : 34;
 C42 : 78;
 C43 : a0;
 C44 : 86;
 C45 : 46;
 C46 : 86;
 C47 : b0;
 C48 : 00;
 C49 : 03;
 C4A : 37;
 C4B : 7f;
 C4C : 7d;
 C4D : 3d;
 C4E : 7f;
 C4F : 7f;
 C50 : c0;
 C51 : 2c;
 C52 : 1e;
 C53 : 05;
 C54 : 61;
 C55 : 62;
 C56 : 61;
 C57 : 0d;
 C58 : 00;
 C59 : c0;
 C5A : ec;
 C5B : fe;
 C5C : de;
 C5D : dc;
 C5E : fe;
 C5F : fe;
 C60 : 33;
 C61 : 4c;
 C62 : b0;
 C63 : ae;
 C64 : 4e;
 C65 : 4e;
 C66 : 8e;
 C67 : b0;
 C68 : 00;
 C69 : 33;
 C6A : 7f;
 C6B : 7f;
 C6C : 3b;
 C6D : 3b;
 C6E : 7f;
 C6F : 7f;
 C70 : cc;
 C71 : 32;
 C72 : 0d;
 C73 : 75;
 C74 : 72;
 C75 : 72;
 C76 : 71;
 C77 : 0d;
 C78 : 00;
 C79 : cc;
 C7A : fe;
 C7B : fe;
 C7C : dc;
 C7D : dc;
 C7E : fe;
 C7F : fe;
 C80 : 07;
 C81 : 1c;
 C82 : 30;
 C83 : 60;
 C84 : 40;
 C85 : c6;
 C86 : 86;
 C87 : 86;
 C88 : 00;
 C89 : 03;
 C8A : 0f;
 C8B : 1f;
 C8C : 3f;
 C8D : 3f;
 C8E : 7d;
 C8F : 7d;
 C90 : e0;
 C91 : 38;
 C92 : 0c;
 C93 : 06;
 C94 : 02;
 C95 : 63;
 C96 : 61;
 C97 : 61;
 C98 : 00;
 C99 : c0;
 C9A : f0;
 C9B : f8;
 C9C : fc;
 C9D : fc;
 C9E : de;
 C9F : de;
 CA0 : 07;
 CA1 : 09;
 CA2 : 12;
 CA3 : 12;
 CA4 : 14;
 CA5 : 25;
 CA6 : 25;
 CA7 : 25;
 CA8 : 00;
 CA9 : 06;
 CAA : 0d;
 CAB : 0d;
 CAC : 0b;
 CAD : 1b;
 CAE : 1a;
 CAF : 1a;
 CB0 : c0;
 CB1 : 20;
 CB2 : 10;
 CB3 : 10;
 CB4 : 08;
 CB5 : 48;
 CB6 : 48;
 CB7 : 48;
 CB8 : 00;
 CB9 : c0;
 CBA : e0;
 CBB : e0;
 CBC : f0;
 CBD : f0;
 CBE : b0;
 CBF : b0;
 CC0 : 03;
 CC1 : 02;
 CC2 : 02;
 CC3 : 02;
 CC4 : 02;
 CC5 : 02;
 CC6 : 02;
 CC7 : 02;
 CC8 : 00;
 CC9 : 01;
 CCA : 01;
 CCB : 01;
 CCC : 01;
 CCD : 01;
 CCE : 01;
 CCF : 01;
 CD0 : c0;
 CD1 : 40;
 CD2 : 40;
 CD3 : 40;
 CD4 : 40;
 CD5 : 40;
 CD6 : 40;
 CD7 : 40;
 CD8 : 00;
 CD9 : 80;
 CDA : 80;
 CDB : 80;
 CDC : 80;
 CDD : 80;
 CDE : 80;
 CDF : 80;
 CE0 : 07;
 CE1 : 1c;
 CE2 : 30;
 CE3 : 60;
 CE4 : 4e;
 CE5 : ce;
 CE6 : 8e;
 CE7 : 8e;
 CE8 : 00;
 CE9 : 03;
 CEA : 0f;
 CEB : 1f;
 CEC : 3f;
 CED : 3b;
 CEE : 7b;
 CEF : 7f;
 CF0 : e0;
 CF1 : 38;
 CF2 : 0c;
 CF3 : 06;
 CF4 : 72;
 CF5 : 73;
 CF6 : 71;
 CF7 : 71;
 CF8 : 00;
 CF9 : c0;
 CFA : f0;
 CFB : f8;
 CFC : fc;
 CFD : dc;
 CFE : de;
 CFF : fe;
 D00 : a0;
 D01 : 83;
 D02 : c7;
 D03 : 47;
 D04 : 67;
 D05 : 33;
 D06 : 18;
 D07 : 07;
 D08 : 7f;
 D09 : 7c;
 D0A : 3a;
 D0B : 38;
 D0C : 18;
 D0D : 0c;
 D0E : 07;
 D0F : 00;
 D10 : 05;
 D11 : c1;
 D12 : e3;
 D13 : e2;
 D14 : e6;
 D15 : cc;
 D16 : 18;
 D17 : e0;
 D18 : fe;
 D19 : 3e;
 D1A : 5c;
 D1B : 1c;
 D1C : 18;
 D1D : 30;
 D1E : e0;
 D1F : 00;
 D20 : a0;
 D21 : 83;
 D22 : cf;
 D23 : 47;
 D24 : 61;
 D25 : 30;
 D26 : 18;
 D27 : 07;
 D28 : 7f;
 D29 : 7c;
 D2A : 32;
 D2B : 38;
 D2C : 1e;
 D2D : 0f;
 D2E : 07;
 D2F : 00;
 D30 : 05;
 D31 : c1;
 D32 : f3;
 D33 : e2;
 D34 : 86;
 D35 : 0c;
 D36 : 18;
 D37 : e0;
 D38 : fe;
 D39 : 3e;
 D3A : 4c;
 D3B : 1c;
 D3C : 78;
 D3D : f0;
 D3E : e0;
 D3F : 00;
 D40 : a0;
 D41 : 81;
 D42 : c7;
 D43 : 47;
 D44 : 63;
 D45 : 31;
 D46 : 18;
 D47 : 07;
 D48 : 7f;
 D49 : 7e;
 D4A : 3a;
 D4B : 38;
 D4C : 1c;
 D4D : 0e;
 D4E : 07;
 D4F : 00;
 D50 : 05;
 D51 : 81;
 D52 : e3;
 D53 : e2;
 D54 : c6;
 D55 : 8c;
 D56 : 18;
 D57 : e0;
 D58 : fe;
 D59 : 7e;
 D5A : 5c;
 D5B : 1c;
 D5C : 38;
 D5D : 70;
 D5E : e0;
 D5F : 00;
 D60 : a1;
 D61 : 83;
 D62 : c7;
 D63 : 47;
 D64 : 67;
 D65 : 33;
 D66 : 18;
 D67 : 07;
 D68 : 7e;
 D69 : 7c;
 D6A : 3a;
 D6B : 38;
 D6C : 18;
 D6D : 0c;
 D6E : 07;
 D6F : 00;
 D70 : 85;
 D71 : c1;
 D72 : e3;
 D73 : e2;
 D74 : e6;
 D75 : cc;
 D76 : 18;
 D77 : e0;
 D78 : 7e;
 D79 : 3e;
 D7A : 5c;
 D7B : 1c;
 D7C : 18;
 D7D : 30;
 D7E : e0;
 D7F : 00;
 D80 : 80;
 D81 : 80;
 D82 : c0;
 D83 : 43;
 D84 : 61;
 D85 : 30;
 D86 : 1c;
 D87 : 07;
 D88 : 7f;
 D89 : 7f;
 D8A : 3f;
 D8B : 3c;
 D8C : 1e;
 D8D : 0f;
 D8E : 03;
 D8F : 00;
 D90 : 01;
 D91 : 01;
 D92 : 03;
 D93 : c2;
 D94 : 86;
 D95 : 0c;
 D96 : 38;
 D97 : e0;
 D98 : fe;
 D99 : fe;
 D9A : fc;
 D9B : 3c;
 D9C : 78;
 D9D : f0;
 D9E : c0;
 D9F : 00;
 DA0 : 24;
 DA1 : 24;
 DA2 : 24;
 DA3 : 12;
 DA4 : 12;
 DA5 : 12;
 DA6 : 09;
 DA7 : 07;
 DA8 : 1b;
 DA9 : 1b;
 DAA : 1b;
 DAB : 0d;
 DAC : 0d;
 DAD : 0d;
 DAE : 06;
 DAF : 00;
 DB0 : 08;
 DB1 : 08;
 DB2 : 08;
 DB3 : d0;
 DB4 : 90;
 DB5 : 10;
 DB6 : 20;
 DB7 : c0;
 DB8 : f0;
 DB9 : f0;
 DBA : f0;
 DBB : 20;
 DBC : 60;
 DBD : e0;
 DBE : c0;
 DBF : 00;
 DC0 : 02;
 DC1 : 02;
 DC2 : 02;
 DC3 : 02;
 DC4 : 02;
 DC5 : 02;
 DC6 : 02;
 DC7 : 03;
 DC8 : 01;
 DC9 : 01;
 DCA : 01;
 DCB : 01;
 DCC : 01;
 DCD : 01;
 DCE : 01;
 DCF : 00;
 DD0 : 40;
 DD1 : 40;
 DD2 : 40;
 DD3 : 40;
 DD4 : 40;
 DD5 : 40;
 DD6 : 40;
 DD7 : c0;
 DD8 : 80;
 DD9 : 80;
 DDA : 80;
 DDB : 80;
 DDC : 80;
 DDD : 80;
 DDE : 80;
 DDF : 00;
 DE0 : 80;
 DE1 : 80;
 DE2 : c1;
 DE3 : 43;
 DE4 : 63;
 DE5 : 30;
 DE6 : 1c;
 DE7 : 07;
 DE8 : 7f;
 DE9 : 7f;
 DEA : 3e;
 DEB : 3c;
 DEC : 1c;
 DED : 0f;
 DEE : 03;
 DEF : 00;
 DF0 : 01;
 DF1 : 01;
 DF2 : 83;
 DF3 : c2;
 DF4 : c6;
 DF5 : 0c;
 DF6 : 38;
 DF7 : e0;
 DF8 : fe;
 DF9 : fe;
 DFA : 7c;
 DFB : 3c;
 DFC : 38;
 DFD : f0;
 DFE : c0;
 DFF : 00;
 E00 : 00;
 E01 : 00;
 E02 : 00;
 E03 : 30;
 E04 : 30;
 E05 : 31;
 E06 : 31;
 E07 : 30;
 E08 : 7f;
 E09 : c0;
 E0A : 9f;
 E0B : 8f;
 E0C : 8c;
 E0D : 8c;
 E0E : 8c;
 E0F : 8f;
 E10 : 00;
 E11 : 00;
 E12 : 1e;
 E13 : 0e;
 E14 : 06;
 E15 : c6;
 E16 : c6;
 E17 : 06;
 E18 : fe;
 E19 : 03;
 E1A : e1;
 E1B : f1;
 E1C : 31;
 E1D : 31;
 E1E : 31;
 E1F : e1;
 E20 : 0f;
 E21 : 00;
 E22 : 1f;
 E23 : 00;
 E24 : 3f;
 E25 : 00;
 E26 : 7f;
 E27 : 0f;
 E28 : 00;
 E29 : 1f;
 E2A : 00;
 E2B : 3f;
 E2C : 00;
 E2D : 7f;
 E2E : 00;
 E2F : f0;
 E30 : f0;
 E31 : 08;
 E32 : f8;
 E33 : 04;
 E34 : fc;
 E35 : 02;
 E36 : fe;
 E37 : f1;
 E38 : 00;
 E39 : f0;
 E3A : 00;
 E3B : f8;
 E3C : 00;
 E3D : fc;
 E3E : 00;
 E3F : 0e;
 E40 : 01;
 E41 : 0f;
 E42 : 1f;
 E43 : 30;
 E44 : 30;
 E45 : 37;
 E46 : 3f;
 E47 : 0f;
 E48 : 00;
 E49 : 00;
 E4A : 00;
 E4B : 0f;
 E4C : 0f;
 E4D : 08;
 E4E : 05;
 E4F : 17;
 E50 : e0;
 E51 : f8;
 E52 : fc;
 E53 : fc;
 E54 : 0e;
 E55 : f6;
 E56 : fa;
 E57 : f8;
 E58 : 00;
 E59 : 00;
 E5A : 00;
 E5B : 00;
 E5C : f0;
 E5D : 08;
 E5E : 54;
 E5F : 74;
 E60 : 3f;
 E61 : 7f;
 E62 : 20;
 E63 : 20;
 E64 : 20;
 E65 : 20;
 E66 : 3f;
 E67 : 3f;
 E68 : 3f;
 E69 : 7f;
 E6A : 7f;
 E6B : 7f;
 E6C : 60;
 E6D : 60;
 E6E : 7f;
 E6F : 7f;
 E70 : fc;
 E71 : fe;
 E72 : 04;
 E73 : 04;
 E74 : 04;
 E75 : 04;
 E76 : fc;
 E77 : fc;
 E78 : fc;
 E79 : fe;
 E7A : fe;
 E7B : fe;
 E7C : 06;
 E7D : 06;
 E7E : fe;
 E7F : fe;
 E80 : 02;
 E81 : 02;
 E82 : 03;
 E83 : 07;
 E84 : 0f;
 E85 : 1f;
 E86 : 14;
 E87 : 17;
 E88 : 03;
 E89 : 03;
 E8A : 00;
 E8B : 00;
 E8C : 02;
 E8D : 04;
 E8E : 0f;
 E8F : 0c;
 E90 : 00;
 E91 : 00;
 E92 : 80;
 E93 : c0;
 E94 : e0;
 E95 : f0;
 E96 : 10;
 E97 : 90;
 E98 : 80;
 E99 : 80;
 E9A : 00;
 E9B : 00;
 E9C : 00;
 E9D : 00;
 E9E : e0;
 E9F : 60;
 EA0 : 07;
 EA1 : 0f;
 EA2 : 08;
 EA3 : 1c;
 EA4 : 28;
 EA5 : 2d;
 EA6 : 5d;
 EA7 : 5d;
 EA8 : 07;
 EA9 : 0f;
 EAA : 0f;
 EAB : 03;
 EAC : 17;
 EAD : 1f;
 EAE : 3a;
 EAF : 3f;
 EB0 : a0;
 EB1 : d0;
 EB2 : 68;
 EB3 : 6c;
 EB4 : 6c;
 EB5 : ac;
 EB6 : cc;
 EB7 : e8;
 EB8 : e0;
 EB9 : f0;
 EBA : f8;
 EBB : bc;
 EBC : 9c;
 EBD : dc;
 EBE : f6;
 EBF : f7;
 EC0 : 00;
 EC1 : 00;
 EC2 : 00;
 EC3 : 01;
 EC4 : 03;
 EC5 : 01;
 EC6 : 01;
 EC7 : 01;
 EC8 : 00;
 EC9 : 00;
 ECA : 00;
 ECB : 01;
 ECC : 03;
 ECD : 01;
 ECE : 01;
 ECF : 01;
 ED0 : 00;
 ED1 : 00;
 ED2 : 00;
 ED3 : 07;
 ED4 : 01;
 ED5 : 07;
 ED6 : 04;
 ED7 : 07;
 ED8 : 00;
 ED9 : 00;
 EDA : 00;
 EDB : 07;
 EDC : 01;
 EDD : 07;
 EDE : 04;
 EDF : 07;
 EE0 : 00;
 EE1 : 00;
 EE2 : 00;
 EE3 : 0a;
 EE4 : 0a;
 EE5 : 0f;
 EE6 : 02;
 EE7 : 02;
 EE8 : 00;
 EE9 : 00;
 EEA : 00;
 EEB : 0a;
 EEC : 0a;
 EED : 0f;
 EEE : 02;
 EEF : 02;
 EF0 : 00;
 EF1 : 00;
 EF2 : 00;
 EF3 : 0f;
 EF4 : 09;
 EF5 : 0f;
 EF6 : 09;
 EF7 : 0f;
 EF8 : 00;
 EF9 : 00;
 EFA : 00;
 EFB : 0f;
 EFC : 09;
 EFD : 0f;
 EFE : 09;
 EFF : 0f;
 F00 : 30;
 F01 : 31;
 F02 : 31;
 F03 : 30;
 F04 : 20;
 F05 : 30;
 F06 : 3f;
 F07 : 00;
 F08 : 8c;
 F09 : 8c;
 F0A : 8c;
 F0B : 8f;
 F0C : 9f;
 F0D : 80;
 F0E : c0;
 F0F : 7f;
 F10 : 06;
 F11 : c6;
 F12 : c6;
 F13 : 06;
 F14 : 06;
 F15 : 0e;
 F16 : fc;
 F17 : 00;
 F18 : 31;
 F19 : 31;
 F1A : 31;
 F1B : f1;
 F1C : e1;
 F1D : 01;
 F1E : 03;
 F1F : fe;
 F20 : ff;
 F21 : 00;
 F22 : fe;
 F23 : 0e;
 F24 : f6;
 F25 : 06;
 F26 : f3;
 F27 : 03;
 F28 : 00;
 F29 : f1;
 F2A : 01;
 F2B : f1;
 F2C : 09;
 F2D : f9;
 F2E : 0c;
 F2F : 74;
 F30 : ff;
 F31 : 81;
 F32 : ff;
 F33 : f1;
 F34 : ff;
 F35 : f1;
 F36 : ff;
 F37 : e2;
 F38 : 00;
 F39 : 0e;
 F3A : 00;
 F3B : 0e;
 F3C : 00;
 F3D : 0e;
 F3E : 00;
 F3F : 0c;
 F40 : 07;
 F41 : 10;
 F42 : 1c;
 F43 : 0d;
 F44 : 0c;
 F45 : 06;
 F46 : 03;
 F47 : 00;
 F48 : 18;
 F49 : 0f;
 F4A : 03;
 F4B : 02;
 F4C : 03;
 F4D : 01;
 F4E : 00;
 F4F : 00;
 F50 : 70;
 F51 : 04;
 F52 : 1c;
 F53 : d8;
 F54 : 18;
 F55 : 30;
 F56 : e0;
 F57 : 00;
 F58 : 8c;
 F59 : f8;
 F5A : e0;
 F5B : 20;
 F5C : e0;
 F5D : c0;
 F5E : 00;
 F5F : 00;
 F60 : 3f;
 F61 : 3c;
 F62 : 24;
 F63 : 27;
 F64 : 7f;
 F65 : 7f;
 F66 : 60;
 F67 : 3f;
 F68 : 7f;
 F69 : 7f;
 F6A : 7f;
 F6B : 7f;
 F6C : 7f;
 F6D : 7f;
 F6E : 7f;
 F6F : 3f;
 F70 : fc;
 F71 : 3c;
 F72 : 24;
 F73 : e4;
 F74 : fe;
 F75 : fe;
 F76 : 06;
 F77 : fc;
 F78 : fe;
 F79 : fe;
 F7A : fe;
 F7B : fe;
 F7C : fe;
 F7D : fe;
 F7E : fe;
 F7F : fc;
 F80 : 14;
 F81 : 14;
 F82 : 14;
 F83 : 14;
 F84 : 13;
 F85 : 10;
 F86 : 1f;
 F87 : 0f;
 F88 : 0b;
 F89 : 0b;
 F8A : 0b;
 F8B : 0b;
 F8C : 0c;
 F8D : 0f;
 F8E : 00;
 F8F : 00;
 F90 : 50;
 F91 : 10;
 F92 : 10;
 F93 : 50;
 F94 : 90;
 F95 : 10;
 F96 : f0;
 F97 : e0;
 F98 : a0;
 F99 : e0;
 F9A : e0;
 F9B : a0;
 F9C : 60;
 F9D : e0;
 F9E : 00;
 F9F : 00;
 FA0 : 02;
 FA1 : 25;
 FA2 : 20;
 FA3 : 07;
 FA4 : 08;
 FA5 : 00;
 FA6 : 20;
 FA7 : 70;
 FA8 : 7f;
 FA9 : 7a;
 FAA : 7f;
 FAB : 78;
 FAC : 37;
 FAD : 3f;
 FAE : 1f;
 FAF : 0f;
 FB0 : 04;
 FB1 : 04;
 FB2 : 20;
 FB3 : 20;
 FB4 : 84;
 FB5 : 0e;
 FB6 : 1e;
 FB7 : 1f;
 FB8 : fb;
 FB9 : fb;
 FBA : ff;
 FBB : fe;
 FBC : 78;
 FBD : f0;
 FBE : e0;
 FBF : 80;
 FC0 : 00;
 FC1 : 00;
 FC2 : 00;
 FC3 : 17;
 FC4 : 35;
 FC5 : 15;
 FC6 : 15;
 FC7 : 17;
 FC8 : 00;
 FC9 : 00;
 FCA : 00;
 FCB : 17;
 FCC : 35;
 FCD : 15;
 FCE : 15;
 FCF : 17;
 FD0 : 00;
 FD1 : 00;
 FD2 : 00;
 FD3 : 77;
 FD4 : 15;
 FD5 : 75;
 FD6 : 45;
 FD7 : 77;
 FD8 : 00;
 FD9 : 00;
 FDA : 00;
 FDB : 77;
 FDC : 15;
 FDD : 75;
 FDE : 45;
 FDF : 77;
 FE0 : 00;
 FE1 : 00;
 FE2 : 00;
 FE3 : a7;
 FE4 : a5;
 FE5 : f5;
 FE6 : 25;
 FE7 : 27;
 FE8 : 00;
 FE9 : 00;
 FEA : 00;
 FEB : a7;
 FEC : a5;
 FED : f5;
 FEE : 25;
 FEF : 27;
 FF0 : 00;
 FF1 : 00;
 FF2 : 00;
 FF3 : 77;
 FF4 : 55;
 FF5 : 75;
 FF6 : 55;
 FF7 : 77;
 FF8 : 00;
 FF9 : 00;
 FFA : 00;
 FFB : 77;
 FFC : 55;
 FFD : 75;
 FFE : 55;
 FFF : 77;
1000 : 7f;
1001 : bf;
1002 : c0;
1003 : c1;
1004 : c3;
1005 : c7;
1006 : cf;
1007 : cf;
1008 : ff;
1009 : c0;
100A : bf;
100B : bf;
100C : bf;
100D : bf;
100E : bf;
100F : bf;
1010 : fd;
1011 : ff;
1012 : 03;
1013 : f3;
1014 : f3;
1015 : e3;
1016 : f3;
1017 : f3;
1018 : fe;
1019 : 02;
101A : fe;
101B : ee;
101C : 8e;
101D : de;
101E : ee;
101F : ee;
1020 : 7f;
1021 : bf;
1022 : c0;
1023 : c0;
1024 : c3;
1025 : c7;
1026 : cf;
1027 : df;
1028 : ff;
1029 : c0;
102A : bf;
102B : bf;
102C : bf;
102D : bf;
102E : bf;
102F : ba;
1030 : fd;
1031 : ff;
1032 : 1f;
1033 : 7f;
1034 : ff;
1035 : ff;
1036 : ff;
1037 : ff;
1038 : fe;
1039 : 02;
103A : fa;
103B : f2;
103C : e6;
103D : 8e;
103E : fa;
103F : f2;
1040 : 7f;
1041 : bf;
1042 : c0;
1043 : c1;
1044 : c3;
1045 : cf;
1046 : ff;
1047 : ff;
1048 : ff;
1049 : c0;
104A : bf;
104B : bf;
104C : be;
104D : bd;
104E : bf;
104F : bf;
1050 : fd;
1051 : ff;
1052 : fb;
1053 : fb;
1054 : ff;
1055 : ff;
1056 : ff;
1057 : ff;
1058 : fe;
1059 : 02;
105A : b6;
105B : 76;
105C : fa;
105D : fa;
105E : fa;
105F : fa;
1060 : 7f;
1061 : bf;
1062 : cf;
1063 : cf;
1064 : cf;
1065 : f7;
1066 : ff;
1067 : ff;
1068 : ff;
1069 : c0;
106A : bf;
106B : bf;
106C : b6;
106D : af;
106E : bf;
106F : 87;
1070 : fd;
1071 : ff;
1072 : 83;
1073 : ff;
1074 : ff;
1075 : ff;
1076 : ff;
1077 : ff;
1078 : fe;
1079 : 02;
107A : 7e;
107B : fe;
107C : 02;
107D : fe;
107E : 42;
107F : 3e;
1080 : 7f;
1081 : bf;
1082 : ce;
1083 : df;
1084 : ff;
1085 : ff;
1086 : ff;
1087 : ff;
1088 : ff;
1089 : c0;
108A : bd;
108B : be;
108C : bf;
108D : bf;
108E : bc;
108F : bb;
1090 : fd;
1091 : ff;
1092 : 3b;
1093 : 7f;
1094 : ff;
1095 : ff;
1096 : ff;
1097 : ff;
1098 : fe;
1099 : 02;
109A : f6;
109B : fa;
109C : fe;
109D : 9e;
109E : 7e;
109F : 3e;
10A0 : 7f;
10A1 : bf;
10A2 : c3;
10A3 : c7;
10A4 : cf;
10A5 : df;
10A6 : df;
10A7 : df;
10A8 : ff;
10A9 : c0;
10AA : be;
10AB : bc;
10AC : be;
10AD : bf;
10AE : bf;
10AF : bf;
10B0 : fd;
10B1 : ff;
10B2 : 03;
10B3 : ff;
10B4 : ff;
10B5 : ff;
10B6 : ff;
10B7 : ff;
10B8 : fe;
10B9 : 02;
10BA : fe;
10BB : fe;
10BC : 02;
10BD : fe;
10BE : 02;
10BF : fe;
10C0 : 7f;
10C1 : bf;
10C2 : c8;
10C3 : c8;
10C4 : cd;
10C5 : ed;
10C6 : ef;
10C7 : ef;
10C8 : ff;
10C9 : c0;
10CA : bf;
10CB : bf;
10CC : bf;
10CD : bf;
10CE : ba;
10CF : ba;
10D0 : fd;
10D1 : ff;
10D2 : 8b;
10D3 : 8b;
10D4 : 9b;
10D5 : bb;
10D6 : f3;
10D7 : f7;
10D8 : fe;
10D9 : 02;
10DA : fe;
10DB : fe;
10DC : fe;
10DD : fe;
10DE : 5e;
10DF : 5e;
10E0 : 7f;
10E1 : bf;
10E2 : c3;
10E3 : c7;
10E4 : cf;
10E5 : cf;
10E6 : ce;
10E7 : ce;
10E8 : ff;
10E9 : c0;
10EA : bf;
10EB : bf;
10EC : be;
10ED : bc;
10EE : bd;
10EF : b1;
10F0 : fd;
10F1 : ff;
10F2 : e3;
10F3 : f3;
10F4 : fb;
10F5 : 7b;
10F6 : 3b;
10F7 : 7b;
10F8 : fe;
10F9 : 02;
10FA : de;
10FB : ee;
10FC : 76;
10FD : b6;
10FE : f6;
10FF : f6;
1100 : cf;
1101 : cf;
1102 : cf;
1103 : c7;
1104 : c3;
1105 : c0;
1106 : 7f;
1107 : ff;
1108 : bf;
1109 : bf;
110A : b7;
110B : bb;
110C : bc;
110D : bf;
110E : ff;
110F : 00;
1110 : f3;
1111 : f3;
1112 : f3;
1113 : e3;
1114 : c3;
1115 : 03;
1116 : fd;
1117 : ff;
1118 : ee;
1119 : ee;
111A : ce;
111B : 9e;
111C : 3e;
111D : fe;
111E : fe;
111F : 00;
1120 : df;
1121 : df;
1122 : df;
1123 : df;
1124 : cf;
1125 : c7;
1126 : 7f;
1127 : ff;
1128 : ba;
1129 : bf;
112A : b8;
112B : af;
112C : b7;
112D : b8;
112E : ff;
112F : 00;
1130 : fb;
1131 : ff;
1132 : ff;
1133 : fb;
1134 : f3;
1135 : e3;
1136 : fd;
1137 : ff;
1138 : e6;
1139 : be;
113A : 72;
113B : e6;
113C : ce;
113D : 1e;
113E : fe;
113F : 00;
1140 : ff;
1141 : dc;
1142 : fe;
1143 : f6;
1144 : de;
1145 : dc;
1146 : 7f;
1147 : ff;
1148 : 80;
1149 : bb;
114A : a5;
114B : ad;
114C : b9;
114D : a3;
114E : ff;
114F : 00;
1150 : ff;
1151 : 3b;
1152 : 7f;
1153 : 4f;
1154 : 7f;
1155 : 3b;
1156 : fd;
1157 : ff;
1158 : 02;
1159 : f6;
115A : ca;
115B : fa;
115C : b2;
115D : c6;
115E : fe;
115F : 00;
1160 : cf;
1161 : cf;
1162 : fd;
1163 : fd;
1164 : c0;
1165 : c0;
1166 : 7f;
1167 : ff;
1168 : bf;
1169 : b9;
116A : bb;
116B : 82;
116C : bf;
116D : bf;
116E : ff;
116F : 00;
1170 : bf;
1171 : ff;
1172 : ff;
1173 : e3;
1174 : 7f;
1175 : 7f;
1176 : fd;
1177 : ff;
1178 : 42;
1179 : fe;
117A : c2;
117B : 5e;
117C : de;
117D : 82;
117E : fe;
117F : 00;
1180 : df;
1181 : cf;
1182 : c7;
1183 : c3;
1184 : c1;
1185 : c1;
1186 : 7f;
1187 : ff;
1188 : ba;
1189 : b8;
118A : bc;
118B : bf;
118C : bf;
118D : be;
118E : ff;
118F : 00;
1190 : ff;
1191 : ff;
1192 : fb;
1193 : f3;
1194 : e3;
1195 : c3;
1196 : fd;
1197 : ff;
1198 : 3a;
1199 : 32;
119A : 66;
119B : ce;
119C : 9e;
119D : 3e;
119E : fe;
119F : 00;
11A0 : df;
11A1 : df;
11A2 : cf;
11A3 : c0;
11A4 : c0;
11A5 : c0;
11A6 : 7f;
11A7 : ff;
11A8 : bf;
11A9 : ae;
11AA : b0;
11AB : bf;
11AC : bf;
11AD : bf;
11AE : ff;
11AF : 00;
11B0 : ff;
11B1 : ff;
11B2 : 7f;
11B3 : 03;
11B4 : 03;
11B5 : 03;
11B6 : fd;
11B7 : ff;
11B8 : 02;
11B9 : 7e;
11BA : 82;
11BB : fe;
11BC : fe;
11BD : fe;
11BE : fe;
11BF : 00;
11C0 : ff;
11C1 : ff;
11C2 : df;
11C3 : df;
11C4 : df;
11C5 : cf;
11C6 : 7f;
11C7 : ff;
11C8 : b8;
11C9 : be;
11CA : be;
11CB : b8;
11CC : bb;
11CD : b3;
11CE : ff;
11CF : 00;
11D0 : ff;
11D1 : ff;
11D2 : ff;
11D3 : fb;
11D4 : fb;
11D5 : f3;
11D6 : fd;
11D7 : ff;
11D8 : 1e;
11D9 : 7e;
11DA : 7e;
11DB : 1e;
11DC : de;
11DD : ce;
11DE : fe;
11DF : 00;
11E0 : c1;
11E1 : c1;
11E2 : c1;
11E3 : c1;
11E4 : c1;
11E5 : c1;
11E6 : 7f;
11E7 : ff;
11E8 : bf;
11E9 : bf;
11EA : be;
11EB : bf;
11EC : bf;
11ED : be;
11EE : ff;
11EF : 00;
11F0 : fb;
11F1 : f3;
11F2 : c3;
11F3 : c3;
11F4 : c3;
11F5 : c7;
11F6 : fd;
11F7 : ff;
11F8 : e6;
11F9 : 8e;
11FA : 3e;
11FB : be;
11FC : be;
11FD : 3e;
11FE : fe;
11FF : 00;
1200 : 00;
1201 : 00;
1202 : 00;
1203 : 00;
1204 : 88;
1205 : 6f;
1206 : b2;
1207 : 00;
1208 : 00;
1209 : 00;
120A : 00;
120B : 00;
120C : 00;
120D : 00;
120E : 4d;
120F : ff;
1210 : 00;
1211 : 4a;
1212 : b7;
1213 : 08;
1214 : 00;
1215 : 00;
1216 : 00;
1217 : 00;
1218 : ff;
1219 : b5;
121A : 00;
121B : 00;
121C : 00;
121D : 00;
121E : 00;
121F : 00;
1220 : 0a;
1221 : 04;
1222 : 06;
1223 : 02;
1224 : 0c;
1225 : 04;
1226 : 06;
1227 : 04;
1228 : 01;
1229 : 03;
122A : 01;
122B : 01;
122C : 03;
122D : 03;
122E : 01;
122F : 03;
1230 : 20;
1231 : 60;
1232 : 20;
1233 : 50;
1234 : 20;
1235 : 20;
1236 : 40;
1237 : 20;
1238 : c0;
1239 : 80;
123A : c0;
123B : 80;
123C : c0;
123D : c0;
123E : 80;
123F : c0;
1240 : 00;
1241 : 00;
1242 : 00;
1243 : 85;
1244 : ff;
1245 : 04;
1246 : 10;
1247 : ff;
1248 : 00;
1249 : 00;
124A : 00;
124B : 00;
124C : 00;
124D : fb;
124E : ff;
124F : ff;
1250 : ff;
1251 : 80;
1252 : 22;
1253 : ff;
1254 : b5;
1255 : 00;
1256 : 00;
1257 : 00;
1258 : ff;
1259 : ff;
125A : dd;
125B : 00;
125C : 00;
125D : 00;
125E : 00;
125F : 00;
1260 : 19;
1261 : 09;
1262 : 0d;
1263 : 19;
1264 : 0b;
1265 : 09;
1266 : 09;
1267 : 19;
1268 : 07;
1269 : 07;
126A : 03;
126B : 07;
126C : 07;
126D : 07;
126E : 07;
126F : 07;
1270 : 98;
1271 : b0;
1272 : 98;
1273 : 90;
1274 : 98;
1275 : b8;
1276 : 90;
1277 : d8;
1278 : e0;
1279 : c0;
127A : e0;
127B : e0;
127C : e0;
127D : c0;
127E : e0;
127F : e0;
1280 : 00;
1281 : 4c;
1282 : 5d;
1283 : ef;
1284 : 82;
1285 : 35;
1286 : 7b;
1287 : ff;
1288 : 00;
1289 : 00;
128A : 00;
128B : 10;
128C : 7d;
128D : ff;
128E : ff;
128F : ff;
1290 : ff;
1291 : 6b;
1292 : 88;
1293 : ea;
1294 : ff;
1295 : 4d;
1296 : 20;
1297 : 00;
1298 : ff;
1299 : ff;
129A : 7f;
129B : 15;
129C : 00;
129D : 00;
129E : 00;
129F : 00;
12A0 : 37;
12A1 : 1b;
12A2 : 75;
12A3 : 73;
12A4 : 27;
12A5 : 17;
12A6 : 73;
12A7 : 19;
12A8 : 0f;
12A9 : 07;
12AA : 0f;
12AB : 0f;
12AC : 1f;
12AD : 0f;
12AE : 0f;
12AF : 07;
12B0 : cc;
12B1 : d8;
12B2 : 8c;
12B3 : fc;
12B4 : 88;
12B5 : da;
12B6 : dc;
12B7 : b8;
12B8 : f0;
12B9 : e0;
12BA : f0;
12BB : e0;
12BC : f0;
12BD : e0;
12BE : e0;
12BF : c0;
12C0 : 94;
12C1 : af;
12C2 : 10;
12C3 : 49;
12C4 : ff;
12C5 : ff;
12C6 : ff;
12C7 : ff;
12C8 : 00;
12C9 : 50;
12CA : ef;
12CB : ff;
12CC : ff;
12CD : ff;
12CE : ff;
12CF : ff;
12D0 : ff;
12D1 : ff;
12D2 : ff;
12D3 : 79;
12D4 : 00;
12D5 : 34;
12D6 : ff;
12D7 : 49;
12D8 : ff;
12D9 : ff;
12DA : ff;
12DB : ff;
12DC : ff;
12DD : cb;
12DE : 00;
12DF : 00;
12E0 : 5f;
12E1 : 4f;
12E2 : cf;
12E3 : 5f;
12E4 : af;
12E5 : 4f;
12E6 : 1f;
12E7 : cf;
12E8 : 3f;
12E9 : 3f;
12EA : 3f;
12EB : 3f;
12EC : 5f;
12ED : 3f;
12EE : 7f;
12EF : 3f;
12F0 : f3;
12F1 : e2;
12F2 : e6;
12F3 : f3;
12F4 : f6;
12F5 : f6;
12F6 : f3;
12F7 : e2;
12F8 : fc;
12F9 : fc;
12FA : f8;
12FB : fc;
12FC : f8;
12FD : f8;
12FE : fc;
12FF : fc;
1300 : 7e;
1301 : ff;
1302 : ef;
1303 : df;
1304 : f7;
1305 : e7;
1306 : ff;
1307 : 7e;
1308 : fd;
1309 : c6;
130A : de;
130B : f6;
130C : ee;
130D : de;
130E : 7c;
130F : 81;
1310 : 1c;
1311 : 3c;
1312 : 3c;
1313 : 1c;
1314 : 1c;
1315 : 1c;
1316 : 1c;
1317 : 1c;
1318 : fb;
1319 : fb;
131A : db;
131B : fb;
131C : fb;
131D : fb;
131E : fb;
131F : e3;
1320 : 7e;
1321 : ff;
1322 : e7;
1323 : ff;
1324 : 7e;
1325 : f8;
1326 : ff;
1327 : ff;
1328 : fd;
1329 : c6;
132A : de;
132B : 1c;
132C : f1;
132D : c7;
132E : fe;
132F : 00;
1330 : 7e;
1331 : ff;
1332 : e7;
1333 : 1f;
1334 : 1f;
1335 : c7;
1336 : ff;
1337 : 7e;
1338 : fd;
1339 : c6;
133A : 1e;
133B : fc;
133C : e6;
133D : fe;
133E : 7c;
133F : 81;
1340 : 1e;
1341 : 3e;
1342 : 6e;
1343 : ee;
1344 : ff;
1345 : ff;
1346 : 0e;
1347 : 0e;
1348 : fd;
1349 : ed;
134A : dd;
134B : dd;
134C : fe;
134D : 0c;
134E : fd;
134F : f1;
1350 : ff;
1351 : ff;
1352 : fe;
1353 : ff;
1354 : 07;
1355 : e7;
1356 : ff;
1357 : 7e;
1358 : fe;
1359 : c0;
135A : fd;
135B : 06;
135C : fe;
135D : de;
135E : 7c;
135F : 81;
1360 : 7e;
1361 : ff;
1362 : e7;
1363 : fe;
1364 : ff;
1365 : e7;
1366 : ff;
1367 : 7e;
1368 : fd;
1369 : c6;
136A : d8;
136B : fd;
136C : c6;
136D : de;
136E : 7c;
136F : 81;
1370 : ff;
1371 : ff;
1372 : e7;
1373 : 0f;
1374 : 1e;
1375 : 1c;
1376 : 1c;
1377 : 1c;
1378 : fe;
1379 : c6;
137A : 1e;
137B : fc;
137C : f9;
137D : fb;
137E : fb;
137F : e3;
1380 : 7e;
1381 : ff;
1382 : e7;
1383 : ff;
1384 : ff;
1385 : e7;
1386 : ff;
1387 : 7e;
1388 : fd;
1389 : c6;
138A : de;
138B : 7c;
138C : c6;
138D : de;
138E : 7c;
138F : 81;
1390 : 7e;
1391 : ff;
1392 : e7;
1393 : ff;
1394 : 7f;
1395 : e7;
1396 : ff;
1397 : 7e;
1398 : fd;
1399 : c6;
139A : de;
139B : 7e;
139C : 86;
139D : de;
139E : 7c;
139F : 81;
13A0 : 00;
13A1 : 00;
13A2 : 00;
13A3 : 00;
13A4 : 00;
13A5 : 00;
13A6 : 00;
13A7 : 00;
13A8 : ff;
13A9 : ff;
13AA : ff;
13AB : ff;
13AC : ff;
13AD : ff;
13AE : ff;
13AF : ff;
13B0 : ff;
13B1 : ff;
13B2 : ff;
13B3 : ff;
13B4 : ff;
13B5 : ff;
13B6 : ff;
13B7 : ff;
13B8 : ff;
13B9 : ff;
13BA : ff;
13BB : ff;
13BC : ff;
13BD : ff;
13BE : ff;
13BF : ff;
13C0 : ff;
13C1 : ff;
13C2 : e3;
13C3 : cb;
13C4 : c3;
13C5 : c3;
13C6 : cb;
13C7 : df;
13C8 : 00;
13C9 : 3e;
13CA : 7e;
13CB : fe;
13CC : fe;
13CD : 7e;
13CE : 76;
13CF : 77;
13D0 : fe;
13D1 : fe;
13D2 : 8e;
13D3 : a6;
13D4 : 86;
13D5 : 86;
13D6 : a6;
13D7 : f6;
13D8 : 00;
13D9 : f8;
13DA : fc;
13DB : fe;
13DC : fe;
13DD : fc;
13DE : dc;
13DF : dc;
13E0 : df;
13E1 : cb;
13E2 : c3;
13E3 : c3;
13E4 : cb;
13E5 : e3;
13E6 : ff;
13E7 : ff;
13E8 : 77;
13E9 : 76;
13EA : 7e;
13EB : fe;
13EC : fe;
13ED : 7e;
13EE : 3e;
13EF : 00;
13F0 : f6;
13F1 : a6;
13F2 : 86;
13F3 : 86;
13F4 : a6;
13F5 : 8e;
13F6 : fe;
13F7 : fe;
13F8 : dc;
13F9 : dc;
13FA : fc;
13FB : fe;
13FC : fe;
13FD : fc;
13FE : f8;
13FF : 00;
1400 : e0;
1401 : f8;
1402 : fe;
1403 : ff;
1404 : ff;
1405 : fe;
1406 : f8;
1407 : e0;
1408 : df;
1409 : f7;
140A : fd;
140B : ff;
140C : fc;
140D : f1;
140E : c7;
140F : 1f;
1410 : 3c;
1411 : 7e;
1412 : f7;
1413 : e7;
1414 : ff;
1415 : ff;
1416 : e7;
1417 : e7;
1418 : fb;
1419 : ed;
141A : ce;
141B : de;
141C : fe;
141D : c6;
141E : de;
141F : 18;
1420 : fe;
1421 : ff;
1422 : e7;
1423 : ff;
1424 : ff;
1425 : e7;
1426 : ff;
1427 : fe;
1428 : fd;
1429 : c6;
142A : de;
142B : fc;
142C : c6;
142D : de;
142E : fc;
142F : 01;
1430 : 3e;
1431 : 7f;
1432 : f7;
1433 : e0;
1434 : e0;
1435 : f7;
1436 : 7f;
1437 : 3e;
1438 : fd;
1439 : e6;
143A : c8;
143B : df;
143C : df;
143D : 6e;
143E : bc;
143F : c1;
1440 : fc;
1441 : fe;
1442 : ef;
1443 : e7;
1444 : e7;
1445 : ef;
1446 : fe;
1447 : fc;
1448 : fb;
1449 : cd;
144A : d6;
144B : de;
144C : de;
144D : dc;
144E : f9;
144F : 03;
1450 : ff;
1451 : ff;
1452 : e0;
1453 : fc;
1454 : fc;
1455 : e0;
1456 : ff;
1457 : ff;
1458 : fe;
1459 : c0;
145A : df;
145B : fb;
145C : c3;
145D : df;
145E : fe;
145F : 00;
1460 : ff;
1461 : ff;
1462 : e0;
1463 : fc;
1464 : fc;
1465 : e0;
1466 : e0;
1467 : e0;
1468 : fe;
1469 : c0;
146A : df;
146B : fb;
146C : c3;
146D : df;
146E : df;
146F : 1f;
1470 : 3f;
1471 : 7f;
1472 : f0;
1473 : ef;
1474 : ef;
1475 : ff;
1476 : 7f;
1477 : 3f;
1478 : fe;
1479 : e0;
147A : cf;
147B : de;
147C : d6;
147D : 66;
147E : be;
147F : c0;
1480 : e7;
1481 : e7;
1482 : e7;
1483 : ff;
1484 : ff;
1485 : e7;
1486 : e7;
1487 : e7;
1488 : de;
1489 : de;
148A : de;
148B : fe;
148C : c6;
148D : de;
148E : de;
148F : 18;
1490 : 7c;
1491 : 7c;
1492 : 38;
1493 : 38;
1494 : 38;
1495 : 38;
1496 : 7c;
1497 : 7c;
1498 : fb;
1499 : b3;
149A : f7;
149B : f7;
149C : f7;
149D : f7;
149E : fb;
149F : 83;
14A0 : 07;
14A1 : 07;
14A2 : 07;
14A3 : 07;
14A4 : e7;
14A5 : e7;
14A6 : ff;
14A7 : 7e;
14A8 : fe;
14A9 : fe;
14AA : fe;
14AB : fe;
14AC : de;
14AD : de;
14AE : 7c;
14AF : 81;
14B0 : e7;
14B1 : ee;
14B2 : fc;
14B3 : f8;
14B4 : f8;
14B5 : fc;
14B6 : ef;
14B7 : e7;
14B8 : de;
14B9 : dd;
14BA : db;
14BB : f7;
14BC : ff;
14BD : cf;
14BE : d6;
14BF : 18;
14C0 : e0;
14C1 : e0;
14C2 : e0;
14C3 : e0;
14C4 : e0;
14C5 : e0;
14C6 : ff;
14C7 : ff;
14C8 : df;
14C9 : df;
14CA : df;
14CB : df;
14CC : df;
14CD : df;
14CE : fe;
14CF : 00;
14D0 : e7;
14D1 : ff;
14D2 : ff;
14D3 : ff;
14D4 : ff;
14D5 : e7;
14D6 : e7;
14D7 : e7;
14D8 : de;
14D9 : ee;
14DA : fe;
14DB : d6;
14DC : c6;
14DD : de;
14DE : de;
14DF : 18;
14E0 : e7;
14E1 : f7;
14E2 : ff;
14E3 : ff;
14E4 : ff;
14E5 : ef;
14E6 : e7;
14E7 : e7;
14E8 : de;
14E9 : ee;
14EA : f6;
14EB : de;
14EC : ce;
14ED : d6;
14EE : de;
14EF : 18;
14F0 : 7e;
14F1 : ff;
14F2 : e7;
14F3 : e7;
14F4 : e7;
14F5 : e7;
14F6 : ff;
14F7 : 7e;
14F8 : fd;
14F9 : c6;
14FA : de;
14FB : de;
14FC : de;
14FD : de;
14FE : 7c;
14FF : 81;
1500 : fe;
1501 : ff;
1502 : e7;
1503 : e7;
1504 : ff;
1505 : fe;
1506 : e0;
1507 : e0;
1508 : fd;
1509 : c6;
150A : de;
150B : de;
150C : fc;
150D : c1;
150E : df;
150F : 1f;
1510 : 7e;
1511 : ff;
1512 : e7;
1513 : e7;
1514 : ff;
1515 : ff;
1516 : ff;
1517 : 7f;
1518 : fd;
1519 : c6;
151A : de;
151B : de;
151C : de;
151D : e4;
151E : 7a;
151F : 80;
1520 : fe;
1521 : ff;
1522 : e7;
1523 : ef;
1524 : ff;
1525 : fe;
1526 : ff;
1527 : ef;
1528 : fd;
1529 : c6;
152A : de;
152B : de;
152C : f8;
152D : dd;
152E : ce;
152F : 10;
1530 : 7c;
1531 : fe;
1532 : ee;
1533 : fe;
1534 : 7f;
1535 : e7;
1536 : ff;
1537 : 7e;
1538 : fb;
1539 : cd;
153A : d1;
153B : 7d;
153C : 86;
153D : de;
153E : 7c;
153F : 81;
1540 : fe;
1541 : fe;
1542 : 38;
1543 : 38;
1544 : 38;
1545 : 38;
1546 : 38;
1547 : 38;
1548 : fd;
1549 : 31;
154A : f7;
154B : f7;
154C : f7;
154D : f7;
154E : f7;
154F : c7;
1550 : e7;
1551 : e7;
1552 : e7;
1553 : e7;
1554 : e7;
1555 : e7;
1556 : ff;
1557 : 7e;
1558 : de;
1559 : de;
155A : de;
155B : de;
155C : de;
155D : de;
155E : 7c;
155F : 81;
1560 : e7;
1561 : e7;
1562 : e7;
1563 : ff;
1564 : ff;
1565 : 7e;
1566 : 3c;
1567 : 18;
1568 : de;
1569 : de;
156A : de;
156B : ee;
156C : 7c;
156D : b9;
156E : d3;
156F : e7;
1570 : e7;
1571 : e7;
1572 : f7;
1573 : ff;
1574 : ff;
1575 : ff;
1576 : ff;
1577 : e7;
1578 : de;
1579 : de;
157A : de;
157B : fe;
157C : fe;
157D : ee;
157E : c6;
157F : 18;
1580 : e7;
1581 : ff;
1582 : ff;
1583 : 7e;
1584 : 7e;
1585 : ff;
1586 : ff;
1587 : e7;
1588 : de;
1589 : ee;
158A : 7c;
158B : b9;
158C : fd;
158D : ee;
158E : c6;
158F : 18;
1590 : ee;
1591 : ee;
1592 : ee;
1593 : fe;
1594 : 7c;
1595 : 38;
1596 : 38;
1597 : 38;
1598 : dd;
1599 : dd;
159A : dd;
159B : 79;
159C : b3;
159D : f7;
159E : f7;
159F : c7;
15A0 : ff;
15A1 : ff;
15A2 : 1f;
15A3 : 3e;
15A4 : 7c;
15A5 : f8;
15A6 : ff;
15A7 : ff;
15A8 : fe;
15A9 : 0e;
15AA : fc;
15AB : f9;
15AC : f3;
15AD : e7;
15AE : fe;
15AF : 00;
15B0 : 00;
15B1 : 4c;
15B2 : 5d;
15B3 : ef;
15B4 : 82;
15B5 : 35;
15B6 : 7b;
15B7 : ff;
15B8 : 00;
15B9 : 00;
15BA : 00;
15BB : 10;
15BC : 7d;
15BD : ff;
15BE : ff;
15BF : ff;
15C0 : ff;
15C1 : 6b;
15C2 : 88;
15C3 : ea;
15C4 : ff;
15C5 : 4d;
15C6 : 20;
15C7 : 00;
15C8 : ff;
15C9 : ff;
15CA : 7f;
15CB : 15;
15CC : 00;
15CD : 00;
15CE : 00;
15CF : 00;
15D0 : 94;
15D1 : af;
15D2 : 10;
15D3 : 49;
15D4 : ff;
15D5 : ff;
15D6 : ff;
15D7 : ff;
15D8 : 00;
15D9 : 50;
15DA : ef;
15DB : ff;
15DC : ff;
15DD : ff;
15DE : ff;
15DF : ff;
15E0 : ff;
15E1 : ff;
15E2 : ff;
15E3 : 79;
15E4 : 00;
15E5 : 34;
15E6 : ff;
15E7 : 49;
15E8 : ff;
15E9 : ff;
15EA : ff;
15EB : ff;
15EC : ff;
15ED : cb;
15EE : 00;
15EF : 00;
15F0 : 00;
15F1 : 00;
15F2 : 00;
15F3 : 00;
15F4 : 00;
15F5 : 00;
15F6 : 00;
15F7 : 00;
15F8 : 00;
15F9 : 00;
15FA : 00;
15FB : 00;
15FC : 00;
15FD : 00;
15FE : 00;
15FF : 00;
1600 : 00;
1601 : 00;
1602 : 00;
1603 : 00;
1604 : 00;
1605 : 00;
1606 : 00;
1607 : 00;
1608 : 00;
1609 : 00;
160A : 00;
160B : 00;
160C : 00;
160D : 00;
160E : 00;
160F : 00;
1610 : 00;
1611 : 00;
1612 : 00;
1613 : 00;
1614 : 00;
1615 : 00;
1616 : 00;
1617 : 00;
1618 : 00;
1619 : 00;
161A : 00;
161B : 00;
161C : 00;
161D : 00;
161E : 00;
161F : 00;
1620 : 00;
1621 : 00;
1622 : 00;
1623 : 00;
1624 : 00;
1625 : 00;
1626 : 00;
1627 : 00;
1628 : 00;
1629 : 00;
162A : 00;
162B : 00;
162C : 00;
162D : 00;
162E : 00;
162F : 00;
1630 : 00;
1631 : 00;
1632 : 00;
1633 : 00;
1634 : 00;
1635 : 00;
1636 : 00;
1637 : 00;
1638 : 00;
1639 : 00;
163A : 00;
163B : 00;
163C : 00;
163D : 00;
163E : 00;
163F : 00;
1640 : 7f;
1641 : 80;
1642 : 80;
1643 : 80;
1644 : 80;
1645 : 80;
1646 : 80;
1647 : 80;
1648 : ff;
1649 : ff;
164A : ff;
164B : ff;
164C : ff;
164D : ff;
164E : ff;
164F : ff;
1650 : ff;
1651 : 01;
1652 : 01;
1653 : 01;
1654 : 01;
1655 : 01;
1656 : 01;
1657 : 01;
1658 : fe;
1659 : fe;
165A : fe;
165B : fe;
165C : fe;
165D : fe;
165E : fe;
165F : fe;
1660 : 80;
1661 : 80;
1662 : 80;
1663 : 80;
1664 : 80;
1665 : 80;
1666 : ff;
1667 : ff;
1668 : ff;
1669 : ff;
166A : ff;
166B : ff;
166C : ff;
166D : ff;
166E : 80;
166F : 00;
1670 : 01;
1671 : 01;
1672 : 01;
1673 : 01;
1674 : 01;
1675 : 01;
1676 : fd;
1677 : ff;
1678 : fe;
1679 : fe;
167A : fe;
167B : fe;
167C : fe;
167D : fe;
167E : 02;
167F : 00;
1680 : ff;
1681 : ff;
1682 : 80;
1683 : 80;
1684 : 80;
1685 : ff;
1686 : ff;
1687 : 06;
1688 : 00;
1689 : 7f;
168A : ff;
168B : ff;
168C : ff;
168D : 00;
168E : f9;
168F : fb;
1690 : ff;
1691 : ff;
1692 : 01;
1693 : 01;
1694 : 01;
1695 : ff;
1696 : ff;
1697 : 00;
1698 : 00;
1699 : fe;
169A : fe;
169B : fe;
169C : fe;
169D : 00;
169E : ff;
169F : ff;
16A0 : 06;
16A1 : 06;
16A2 : ff;
16A3 : ff;
16A4 : 00;
16A5 : 00;
16A6 : 00;
16A7 : ff;
16A8 : fb;
16A9 : fb;
16AA : 00;
16AB : ff;
16AC : ff;
16AD : ff;
16AE : ff;
16AF : 00;
16B0 : 00;
16B1 : 00;
16B2 : ff;
16B3 : ff;
16B4 : 60;
16B5 : 60;
16B6 : 60;
16B7 : ff;
16B8 : ff;
16B9 : ff;
16BA : 00;
16BB : 9f;
16BC : bf;
16BD : bf;
16BE : bf;
16BF : 00;
16C0 : 00;
16C1 : 7f;
16C2 : 80;
16C3 : 80;
16C4 : 00;
16C5 : 7f;
16C6 : f1;
16C7 : 02;
16C8 : 00;
16C9 : 7f;
16CA : ff;
16CB : ff;
16CC : 7f;
16CD : 00;
16CE : f1;
16CF : fb;
16D0 : 00;
16D1 : fc;
16D2 : 00;
16D3 : 00;
16D4 : 02;
16D5 : fc;
16D6 : ff;
16D7 : 00;
16D8 : 00;
16D9 : fc;
16DA : fe;
16DB : fe;
16DC : fc;
16DD : 00;
16DE : ff;
16DF : ff;
16E0 : 02;
16E1 : 08;
16E2 : f1;
16E3 : ff;
16E4 : 00;
16E5 : 00;
16E6 : 00;
16E7 : ff;
16E8 : fb;
16E9 : f1;
16EA : 00;
16EB : ff;
16EC : ff;
16ED : ff;
16EE : ff;
16EF : 00;
16F0 : 00;
16F1 : 00;
16F2 : ff;
16F3 : 1f;
16F4 : 20;
16F5 : 20;
16F6 : 80;
16F7 : 1f;
16F8 : ff;
16F9 : ff;
16FA : 00;
16FB : 1f;
16FC : bf;
16FD : bf;
16FE : 1f;
16FF : 00;
1700 : 00;
1701 : 00;
1702 : 3f;
1703 : 40;
1704 : 00;
1705 : 3f;
1706 : 00;
1707 : e0;
1708 : 00;
1709 : 00;
170A : 3f;
170B : 7f;
170C : 3f;
170D : 00;
170E : 00;
170F : e0;
1710 : 00;
1711 : 00;
1712 : f8;
1713 : 00;
1714 : 04;
1715 : f8;
1716 : 00;
1717 : ff;
1718 : 00;
1719 : 00;
171A : f8;
171B : fc;
171C : f8;
171D : 00;
171E : 00;
171F : ff;
1720 : 01;
1721 : 10;
1722 : e0;
1723 : 00;
1724 : ff;
1725 : 00;
1726 : 00;
1727 : ff;
1728 : f1;
1729 : e0;
172A : 00;
172B : 00;
172C : ff;
172D : ff;
172E : ff;
172F : 00;
1730 : 00;
1731 : 00;
1732 : ff;
1733 : 00;
1734 : 07;
1735 : 08;
1736 : 80;
1737 : 07;
1738 : ff;
1739 : ff;
173A : 00;
173B : 00;
173C : 07;
173D : 8f;
173E : 07;
173F : 00;
1740 : 00;
1741 : 00;
1742 : 3f;
1743 : 00;
1744 : 3f;
1745 : 00;
1746 : 00;
1747 : e0;
1748 : 00;
1749 : 00;
174A : 3f;
174B : 3f;
174C : 00;
174D : 00;
174E : 00;
174F : e0;
1750 : 00;
1751 : 00;
1752 : f8;
1753 : 04;
1754 : fc;
1755 : 00;
1756 : 00;
1757 : ff;
1758 : 00;
1759 : 00;
175A : f8;
175B : f8;
175C : 00;
175D : 00;
175E : 00;
175F : ff;
1760 : 10;
1761 : f0;
1762 : 00;
1763 : 00;
1764 : ff;
1765 : 00;
1766 : ff;
1767 : 00;
1768 : e0;
1769 : 00;
176A : 00;
176B : 00;
176C : ff;
176D : ff;
176E : 00;
176F : 00;
1770 : 00;
1771 : ff;
1772 : 00;
1773 : 00;
1774 : 07;
1775 : 80;
1776 : 87;
1777 : 00;
1778 : ff;
1779 : 00;
177A : 00;
177B : 00;
177C : 07;
177D : 07;
177E : 00;
177F : 00;
1780 : 00;
1781 : 00;
1782 : 1f;
1783 : 1f;
1784 : 00;
1785 : 00;
1786 : 00;
1787 : f0;
1788 : 00;
1789 : 00;
178A : 1f;
178B : 00;
178C : 00;
178D : 00;
178E : 00;
178F : e0;
1790 : 00;
1791 : 00;
1792 : fc;
1793 : fc;
1794 : 00;
1795 : 00;
1796 : 00;
1797 : 7f;
1798 : 00;
1799 : 00;
179A : f8;
179B : 00;
179C : 00;
179D : 00;
179E : 00;
179F : 7f;
17A0 : f0;
17A1 : 00;
17A2 : 00;
17A3 : 00;
17A4 : ff;
17A5 : ff;
17A6 : 00;
17A7 : 00;
17A8 : 00;
17A9 : 00;
17AA : 00;
17AB : 00;
17AC : ff;
17AD : 00;
17AE : 00;
17AF : 00;
17B0 : 7f;
17B1 : 00;
17B2 : 00;
17B3 : 00;
17B4 : 83;
17B5 : 83;
17B6 : 00;
17B7 : 00;
17B8 : 00;
17B9 : 00;
17BA : 00;
17BB : 00;
17BC : 03;
17BD : 00;
17BE : 00;
17BF : 00;
17C0 : 00;
17C1 : 00;
17C2 : 00;
17C3 : 00;
17C4 : 00;
17C5 : 00;
17C6 : 00;
17C7 : 00;
17C8 : 00;
17C9 : 00;
17CA : 03;
17CB : 00;
17CC : 00;
17CD : 00;
17CE : 00;
17CF : e0;
17D0 : 00;
17D1 : 00;
17D2 : 00;
17D3 : 00;
17D4 : 00;
17D5 : 00;
17D6 : 00;
17D7 : 00;
17D8 : 00;
17D9 : 00;
17DA : f8;
17DB : 00;
17DC : 00;
17DD : 00;
17DE : 00;
17DF : 0f;
17E0 : 00;
17E1 : 00;
17E2 : 00;
17E3 : 00;
17E4 : 00;
17E5 : 00;
17E6 : 00;
17E7 : 00;
17E8 : 00;
17E9 : 00;
17EA : 00;
17EB : 00;
17EC : 7f;
17ED : 00;
17EE : 00;
17EF : 00;
17F0 : 00;
17F1 : 00;
17F2 : 00;
17F3 : 00;
17F4 : 00;
17F5 : 00;
17F6 : 00;
17F7 : 00;
17F8 : 00;
17F9 : 00;
17FA : 00;
17FB : 00;
17FC : 00;
17FD : 00;
17FE : 00;
17FF : 00;
1800 : 00;
1801 : 07;
1802 : 1f;
1803 : 3f;
1804 : 7f;
1805 : 7f;
1806 : ff;
1807 : ff;
1808 : 00;
1809 : 00;
180A : 00;
180B : 0c;
180C : 18;
180D : 18;
180E : 30;
180F : 30;
1810 : 75;
1811 : f0;
1812 : fa;
1813 : fc;
1814 : fe;
1815 : fe;
1816 : ff;
1817 : ff;
1818 : 75;
1819 : c0;
181A : 82;
181B : 80;
181C : 00;
181D : 00;
181E : 00;
181F : 00;
1820 : ff;
1821 : ff;
1822 : ff;
1823 : 7f;
1824 : 7f;
1825 : 3f;
1826 : 1f;
1827 : 07;
1828 : 00;
1829 : 00;
182A : 00;
182B : 00;
182C : 00;
182D : 00;
182E : 00;
182F : 00;
1830 : ff;
1831 : ff;
1832 : ff;
1833 : fe;
1834 : fe;
1835 : fc;
1836 : f8;
1837 : e0;
1838 : 00;
1839 : 00;
183A : 00;
183B : 00;
183C : 00;
183D : 00;
183E : 00;
183F : 00;
1840 : 00;
1841 : 03;
1842 : 0f;
1843 : 1d;
1844 : 3f;
1845 : 2f;
1846 : 7b;
1847 : 7f;
1848 : 00;
1849 : 00;
184A : 00;
184B : 06;
184C : 0c;
184D : 1c;
184E : 1c;
184F : 18;
1850 : 68;
1851 : c0;
1852 : f0;
1853 : f8;
1854 : fc;
1855 : fc;
1856 : fe;
1857 : fe;
1858 : 68;
1859 : c0;
185A : 90;
185B : 80;
185C : 00;
185D : 00;
185E : 00;
185F : 00;
1860 : 67;
1861 : 7f;
1862 : 7f;
1863 : 3f;
1864 : 3f;
1865 : 1f;
1866 : 0f;
1867 : 03;
1868 : 18;
1869 : 00;
186A : 00;
186B : 00;
186C : 00;
186D : 00;
186E : 00;
186F : 00;
1870 : fe;
1871 : fe;
1872 : fe;
1873 : fc;
1874 : fc;
1875 : f8;
1876 : f0;
1877 : c0;
1878 : 00;
1879 : 00;
187A : 00;
187B : 00;
187C : 00;
187D : 00;
187E : 00;
187F : 00;
1880 : 01;
1881 : 07;
1882 : 0f;
1883 : 1f;
1884 : 1f;
1885 : 3f;
1886 : 3f;
1887 : 3f;
1888 : 00;
1889 : 00;
188A : 00;
188B : 04;
188C : 0c;
188D : 0c;
188E : 18;
188F : 18;
1890 : 84;
1891 : f0;
1892 : f2;
1893 : f8;
1894 : f8;
1895 : fc;
1896 : fc;
1897 : fc;
1898 : 04;
1899 : 70;
189A : c2;
189B : 80;
189C : 80;
189D : 00;
189E : 00;
189F : 00;
18A0 : 3f;
18A1 : 3f;
18A2 : 3f;
18A3 : 1f;
18A4 : 1f;
18A5 : 0f;
18A6 : 07;
18A7 : 01;
18A8 : 00;
18A9 : 00;
18AA : 00;
18AB : 00;
18AC : 00;
18AD : 00;
18AE : 00;
18AF : 00;
18B0 : fc;
18B1 : fc;
18B2 : fc;
18B3 : f8;
18B4 : f8;
18B5 : f0;
18B6 : e0;
18B7 : 80;
18B8 : 00;
18B9 : 00;
18BA : 00;
18BB : 00;
18BC : 00;
18BD : 00;
18BE : 00;
18BF : 00;
18C0 : 04;
18C1 : 0e;
18C2 : 0f;
18C3 : 1f;
18C4 : 6f;
18C5 : ff;
18C6 : 27;
18C7 : 1f;
18C8 : 03;
18C9 : 01;
18CA : 05;
18CB : 03;
18CC : 19;
18CD : 0a;
18CE : de;
18CF : fa;
18D0 : 20;
18D1 : 20;
18D2 : f0;
18D3 : d0;
18D4 : fc;
18D5 : f7;
18D6 : f8;
18D7 : fc;
18D8 : c0;
18D9 : c0;
18DA : c0;
18DB : 78;
18DC : 00;
18DD : 18;
18DE : 5f;
18DF : 57;
18E0 : 1f;
18E1 : 1f;
18E2 : cd;
18E3 : 6f;
18E4 : 3b;
18E5 : 1b;
18E6 : 0c;
18E7 : 06;
18E8 : eb;
18E9 : eb;
18EA : 36;
18EB : 14;
18EC : 0e;
18ED : 16;
18EE : 03;
18EF : 01;
18F0 : fc;
18F1 : f8;
18F2 : f3;
18F3 : ee;
18F4 : ec;
18F5 : d8;
18F6 : 30;
18F7 : 20;
18F8 : b7;
18F9 : 3f;
18FA : ac;
18FB : 70;
18FC : 50;
18FD : e8;
18FE : c0;
18FF : c0;
1900 : 0d;
1901 : 1d;
1902 : 3d;
1903 : 79;
1904 : f3;
1905 : f7;
1906 : 07;
1907 : ff;
1908 : 03;
1909 : 03;
190A : 07;
190B : 07;
190C : 1f;
190D : 3f;
190E : ff;
190F : ff;
1910 : b0;
1911 : b0;
1912 : d8;
1913 : de;
1914 : ef;
1915 : e7;
1916 : f8;
1917 : ff;
1918 : c0;
1919 : e0;
191A : e0;
191B : f8;
191C : f0;
191D : f8;
191E : ff;
191F : ff;
1920 : ff;
1921 : 1f;
1922 : cf;
1923 : e3;
1924 : 7b;
1925 : 3b;
1926 : 19;
1927 : 0d;
1928 : ff;
1929 : ff;
192A : 3f;
192B : 1f;
192C : 17;
192D : 0f;
192E : 0f;
192F : 03;
1930 : ff;
1931 : f8;
1932 : e3;
1933 : ef;
1934 : de;
1935 : d8;
1936 : b8;
1937 : b0;
1938 : ff;
1939 : ff;
193A : fc;
193B : f0;
193C : e8;
193D : f0;
193E : c0;
193F : c0;
1940 : 13;
1941 : 7b;
1942 : f3;
1943 : e3;
1944 : 07;
1945 : 0f;
1946 : ff;
1947 : ff;
1948 : 0f;
1949 : 07;
194A : 0f;
194B : 1f;
194C : ff;
194D : ff;
194E : ff;
194F : ff;
1950 : d8;
1951 : 9c;
1952 : cd;
1953 : c7;
1954 : c2;
1955 : e5;
1956 : ff;
1957 : ff;
1958 : e0;
1959 : e0;
195A : f0;
195B : f8;
195C : fd;
195D : ff;
195E : ff;
195F : ff;
1960 : ff;
1961 : ff;
1962 : 9f;
1963 : 0f;
1964 : cf;
1965 : e3;
1966 : 73;
1967 : 37;
1968 : ff;
1969 : ff;
196A : ff;
196B : ff;
196C : 3f;
196D : 1f;
196E : 0f;
196F : 0f;
1970 : ff;
1971 : fb;
1972 : e0;
1973 : e2;
1974 : cf;
1975 : 95;
1976 : dc;
1977 : c8;
1978 : ff;
1979 : ff;
197A : ff;
197B : fd;
197C : f0;
197D : e8;
197E : e0;
197F : f0;
1980 : ef;
1981 : 8f;
1982 : 17;
1983 : 5f;
1984 : ff;
1985 : ff;
1986 : ff;
1987 : ff;
1988 : 1f;
1989 : 7f;
198A : ff;
198B : ff;
198C : ff;
198D : ff;
198E : ff;
198F : ff;
1990 : f4;
1991 : c7;
1992 : f8;
1993 : f9;
1994 : ff;
1995 : ff;
1996 : ff;
1997 : ff;
1998 : f8;
1999 : f8;
199A : ff;
199B : ff;
199C : ff;
199D : ff;
199E : ff;
199F : ff;
19A0 : ff;
19A1 : ff;
19A2 : ff;
19A3 : 7f;
19A4 : 3f;
19A5 : 0f;
19A6 : c7;
19A7 : 67;
19A8 : ff;
19A9 : ff;
19AA : ff;
19AB : ff;
19AC : ff;
19AD : ff;
19AE : 3f;
19AF : 1f;
19B0 : ff;
19B1 : ff;
19B2 : ff;
19B3 : ff;
19B4 : fe;
19B5 : fe;
19B6 : e3;
19B7 : f5;
19B8 : ff;
19B9 : ff;
19BA : ff;
19BB : ff;
19BC : ff;
19BD : ff;
19BE : fc;
19BF : f8;
19C0 : 00;
19C1 : 00;
19C2 : 00;
19C3 : 00;
19C4 : 0a;
19C5 : 07;
19C6 : 06;
19C7 : 0c;
19C8 : 00;
19C9 : 00;
19CA : 00;
19CB : 00;
19CC : 00;
19CD : 00;
19CE : 01;
19CF : 03;
19D0 : 00;
19D1 : 00;
19D2 : 00;
19D3 : 00;
19D4 : b0;
19D5 : e0;
19D6 : 60;
19D7 : 30;
19D8 : 00;
19D9 : 00;
19DA : 00;
19DB : 00;
19DC : 00;
19DD : 00;
19DE : 80;
19DF : c0;
19E0 : 04;
19E1 : 06;
19E2 : 0f;
19E3 : 02;
19E4 : 00;
19E5 : 00;
19E6 : 00;
19E7 : 00;
19E8 : 03;
19E9 : 01;
19EA : 00;
19EB : 00;
19EC : 00;
19ED : 00;
19EE : 00;
19EF : 00;
19F0 : 20;
19F1 : 60;
19F2 : e0;
19F3 : 90;
19F4 : 00;
19F5 : 00;
19F6 : 00;
19F7 : 00;
19F8 : c0;
19F9 : 80;
19FA : 00;
19FB : 00;
19FC : 00;
19FD : 00;
19FE : 00;
19FF : 00;
1A00 : 00;
1A01 : 00;
1A02 : 00;
1A03 : 0d;
1A04 : 0f;
1A05 : 06;
1A06 : 1d;
1A07 : 0b;
1A08 : 00;
1A09 : 00;
1A0A : 00;
1A0B : 00;
1A0C : 00;
1A0D : 01;
1A0E : 03;
1A0F : 07;
1A10 : 00;
1A11 : 00;
1A12 : 00;
1A13 : 18;
1A14 : f0;
1A15 : 60;
1A16 : b0;
1A17 : d0;
1A18 : 00;
1A19 : 00;
1A1A : 00;
1A1B : 00;
1A1C : 00;
1A1D : 80;
1A1E : c0;
1A1F : e0;
1A20 : 0b;
1A21 : 05;
1A22 : 0e;
1A23 : 1b;
1A24 : 02;
1A25 : 00;
1A26 : 00;
1A27 : 00;
1A28 : 07;
1A29 : 03;
1A2A : 01;
1A2B : 00;
1A2C : 00;
1A2D : 00;
1A2E : 00;
1A2F : 00;
1A30 : d8;
1A31 : b0;
1A32 : 60;
1A33 : f0;
1A34 : 18;
1A35 : 00;
1A36 : 00;
1A37 : 00;
1A38 : e0;
1A39 : c0;
1A3A : 80;
1A3B : 00;
1A3C : 00;
1A3D : 00;
1A3E : 00;
1A3F : 00;
1A40 : a4;
1A41 : f2;
1A42 : 7f;
1A43 : 3f;
1A44 : 3d;
1A45 : 0c;
1A46 : 39;
1A47 : 1d;
1A48 : 00;
1A49 : 00;
1A4A : 00;
1A4B : 00;
1A4C : 02;
1A4D : 03;
1A4E : 07;
1A4F : 03;
1A50 : 25;
1A51 : 4f;
1A52 : fe;
1A53 : fe;
1A54 : f8;
1A55 : 3e;
1A56 : 1c;
1A57 : d8;
1A58 : 00;
1A59 : 00;
1A5A : 00;
1A5B : 00;
1A5C : 00;
1A5D : c0;
1A5E : e0;
1A5F : e0;
1A60 : 4d;
1A61 : 39;
1A62 : 1c;
1A63 : 5f;
1A64 : 3f;
1A65 : 1f;
1A66 : 73;
1A67 : c0;
1A68 : 03;
1A69 : 07;
1A6A : 03;
1A6B : 00;
1A6C : 00;
1A6D : 00;
1A6E : 00;
1A6F : 00;
1A70 : 98;
1A71 : 9e;
1A72 : 3d;
1A73 : fc;
1A74 : fe;
1A75 : f8;
1A76 : 9e;
1A77 : 03;
1A78 : e0;
1A79 : e0;
1A7A : c0;
1A7B : 00;
1A7C : 00;
1A7D : 00;
1A7E : 00;
1A7F : 00;
1A80 : a6;
1A81 : fb;
1A82 : 6e;
1A83 : a0;
1A84 : 23;
1A85 : 67;
1A86 : cf;
1A87 : 6f;
1A88 : 00;
1A89 : 00;
1A8A : 11;
1A8B : 1f;
1A8C : 1f;
1A8D : 1f;
1A8E : 3f;
1A8F : 1f;
1A90 : b5;
1A91 : ef;
1A92 : fa;
1A93 : 33;
1A94 : 86;
1A95 : e3;
1A96 : f6;
1A97 : f2;
1A98 : 00;
1A99 : 00;
1A9A : 04;
1A9B : cc;
1A9C : f8;
1A9D : fc;
1A9E : f8;
1A9F : fc;
1AA0 : cf;
1AA1 : 4f;
1AA2 : 87;
1AA3 : f3;
1AA4 : 40;
1AA5 : bc;
1AA6 : 77;
1AA7 : ca;
1AA8 : 3f;
1AA9 : 3f;
1AAA : 3f;
1AAB : 0f;
1AAC : 3f;
1AAD : 03;
1AAE : 00;
1AAF : 00;
1AB0 : f3;
1AB1 : f6;
1AB2 : ef;
1AB3 : c4;
1AB4 : 26;
1AB5 : a4;
1AB6 : fe;
1AB7 : 23;
1AB8 : fc;
1AB9 : f8;
1ABA : f0;
1ABB : f8;
1ABC : d8;
1ABD : 58;
1ABE : 00;
1ABF : 00;
1AC0 : 00;
1AC1 : 00;
1AC2 : 00;
1AC3 : 00;
1AC4 : 00;
1AC5 : 00;
1AC6 : 00;
1AC7 : 00;
1AC8 : 00;
1AC9 : 00;
1ACA : 00;
1ACB : 00;
1ACC : 00;
1ACD : 00;
1ACE : 00;
1ACF : 00;
1AD0 : 00;
1AD1 : 00;
1AD2 : 00;
1AD3 : 00;
1AD4 : 00;
1AD5 : 00;
1AD6 : 00;
1AD7 : 00;
1AD8 : 00;
1AD9 : 00;
1ADA : 00;
1ADB : 00;
1ADC : 00;
1ADD : 00;
1ADE : 00;
1ADF : 00;
1AE0 : 00;
1AE1 : 00;
1AE2 : 00;
1AE3 : 00;
1AE4 : 00;
1AE5 : 00;
1AE6 : 00;
1AE7 : 00;
1AE8 : 00;
1AE9 : 00;
1AEA : 00;
1AEB : 00;
1AEC : 00;
1AED : 00;
1AEE : 00;
1AEF : 00;
1AF0 : 00;
1AF1 : 00;
1AF2 : 00;
1AF3 : 00;
1AF4 : 00;
1AF5 : 00;
1AF6 : 00;
1AF7 : 00;
1AF8 : 00;
1AF9 : 00;
1AFA : 00;
1AFB : 00;
1AFC : 00;
1AFD : 00;
1AFE : 00;
1AFF : 00;
1B00 : 00;
1B01 : 00;
1B02 : 00;
1B03 : 00;
1B04 : 00;
1B05 : 00;
1B06 : 00;
1B07 : 00;
1B08 : 00;
1B09 : 00;
1B0A : 00;
1B0B : 00;
1B0C : 00;
1B0D : 00;
1B0E : 00;
1B0F : 00;
1B10 : ff;
1B11 : ff;
1B12 : ff;
1B13 : ff;
1B14 : ff;
1B15 : ff;
1B16 : 7f;
1B17 : 3f;
1B18 : ff;
1B19 : ff;
1B1A : ff;
1B1B : ff;
1B1C : ff;
1B1D : ff;
1B1E : 7f;
1B1F : 3f;
1B20 : 07;
1B21 : 07;
1B22 : 07;
1B23 : 07;
1B24 : 07;
1B25 : 07;
1B26 : 03;
1B27 : 01;
1B28 : 07;
1B29 : 07;
1B2A : 07;
1B2B : 07;
1B2C : 07;
1B2D : 07;
1B2E : 03;
1B2F : 01;
1B30 : ff;
1B31 : ff;
1B32 : ff;
1B33 : ff;
1B34 : ff;
1B35 : ff;
1B36 : ff;
1B37 : ff;
1B38 : f8;
1B39 : f8;
1B3A : f8;
1B3B : f8;
1B3C : f8;
1B3D : f8;
1B3E : f8;
1B3F : f8;
1B40 : ff;
1B41 : ff;
1B42 : ff;
1B43 : ff;
1B44 : ff;
1B45 : ff;
1B46 : ff;
1B47 : cf;
1B48 : ff;
1B49 : ff;
1B4A : ff;
1B4B : ff;
1B4C : ff;
1B4D : ff;
1B4E : 7e;
1B4F : 0c;
1B50 : f8;
1B51 : f8;
1B52 : f8;
1B53 : f8;
1B54 : f8;
1B55 : f8;
1B56 : f8;
1B57 : f8;
1B58 : 00;
1B59 : 00;
1B5A : 00;
1B5B : 00;
1B5C : 00;
1B5D : 00;
1B5E : 80;
1B5F : c0;
1B60 : 00;
1B61 : 80;
1B62 : c0;
1B63 : c0;
1B64 : e0;
1B65 : e0;
1B66 : f0;
1B67 : f0;
1B68 : 00;
1B69 : 80;
1B6A : c0;
1B6B : c0;
1B6C : e0;
1B6D : e0;
1B6E : f0;
1B6F : f0;
1B70 : ff;
1B71 : ff;
1B72 : ff;
1B73 : fb;
1B74 : fb;
1B75 : f9;
1B76 : f9;
1B77 : f8;
1B78 : 0f;
1B79 : 07;
1B7A : 07;
1B7B : 03;
1B7C : 03;
1B7D : 01;
1B7E : 01;
1B7F : 00;
1B80 : 03;
1B81 : 0f;
1B82 : 18;
1B83 : 13;
1B84 : 37;
1B85 : 37;
1B86 : 6f;
1B87 : 6f;
1B88 : 03;
1B89 : 0f;
1B8A : 1f;
1B8B : 1f;
1B8C : 3f;
1B8D : 3f;
1B8E : 7f;
1B8F : 7f;
1B90 : ff;
1B91 : ff;
1B92 : ff;
1B93 : ff;
1B94 : ff;
1B95 : ff;
1B96 : ff;
1B97 : ff;
1B98 : ff;
1B99 : ff;
1B9A : ff;
1B9B : 7f;
1B9C : 7f;
1B9D : 7f;
1B9E : 3f;
1B9F : 3f;
1BA0 : ff;
1BA1 : ff;
1BA2 : ff;
1BA3 : 7f;
1BA4 : 7f;
1BA5 : 7f;
1BA6 : 3f;
1BA7 : 0f;
1BA8 : ff;
1BA9 : ff;
1BAA : ff;
1BAB : 7f;
1BAC : 7f;
1BAD : 7f;
1BAE : 3f;
1BAF : 0f;
1BB0 : ff;
1BB1 : ff;
1BB2 : ff;
1BB3 : ff;
1BB4 : ff;
1BB5 : ff;
1BB6 : ff;
1BB7 : ff;
1BB8 : 3f;
1BB9 : 1f;
1BBA : 1f;
1BBB : 1f;
1BBC : 0f;
1BBD : 0f;
1BBE : 0f;
1BBF : 07;
1BC0 : 00;
1BC1 : 80;
1BC2 : 80;
1BC3 : c0;
1BC4 : c0;
1BC5 : c0;
1BC6 : e0;
1BC7 : fc;
1BC8 : 00;
1BC9 : 80;
1BCA : 80;
1BCB : c0;
1BCC : c0;
1BCD : c0;
1BCE : e0;
1BCF : e0;
1BD0 : fc;
1BD1 : fc;
1BD2 : fe;
1BD3 : fe;
1BD4 : fe;
1BD5 : ff;
1BD6 : ff;
1BD7 : ff;
1BD8 : e0;
1BD9 : f0;
1BDA : f0;
1BDB : f0;
1BDC : f8;
1BDD : f8;
1BDE : f8;
1BDF : fc;
1BE0 : ff;
1BE1 : ff;
1BE2 : ff;
1BE3 : ff;
1BE4 : ff;
1BE5 : ff;
1BE6 : ff;
1BE7 : ff;
1BE8 : fc;
1BE9 : fc;
1BEA : fe;
1BEB : fe;
1BEC : fe;
1BED : ff;
1BEE : ff;
1BEF : ff;
1BF0 : e7;
1BF1 : f7;
1BF2 : f7;
1BF3 : f7;
1BF4 : ff;
1BF5 : ff;
1BF6 : ff;
1BF7 : ff;
1BF8 : 87;
1BF9 : 87;
1BFA : 87;
1BFB : c7;
1BFC : c7;
1BFD : c7;
1BFE : e7;
1BFF : e7;
1C00 : 0f;
1C01 : 3f;
1C02 : 61;
1C03 : 47;
1C04 : cf;
1C05 : df;
1C06 : df;
1C07 : df;
1C08 : 0f;
1C09 : 3f;
1C0A : 7f;
1C0B : 7f;
1C0C : ff;
1C0D : ff;
1C0E : ff;
1C0F : ff;
1C10 : ff;
1C11 : ff;
1C12 : ff;
1C13 : ff;
1C14 : ff;
1C15 : ff;
1C16 : ff;
1C17 : ff;
1C18 : ff;
1C19 : ff;
1C1A : ff;
1C1B : ff;
1C1C : ff;
1C1D : ff;
1C1E : ff;
1C1F : ff;
1C20 : 80;
1C21 : e0;
1C22 : f0;
1C23 : f0;
1C24 : f8;
1C25 : f8;
1C26 : f8;
1C27 : fc;
1C28 : 80;
1C29 : e0;
1C2A : f0;
1C2B : f0;
1C2C : f8;
1C2D : f8;
1C2E : f8;
1C2F : f8;
1C30 : ff;
1C31 : ff;
1C32 : ff;
1C33 : ff;
1C34 : ff;
1C35 : ff;
1C36 : ff;
1C37 : ff;
1C38 : f8;
1C39 : f8;
1C3A : f8;
1C3B : f8;
1C3C : f0;
1C3D : f0;
1C3E : e0;
1C3F : 80;
1C40 : 07;
1C41 : 07;
1C42 : 07;
1C43 : 07;
1C44 : 07;
1C45 : 07;
1C46 : 07;
1C47 : 07;
1C48 : 07;
1C49 : 07;
1C4A : 07;
1C4B : 07;
1C4C : 07;
1C4D : 07;
1C4E : 07;
1C4F : 07;
1C50 : fe;
1C51 : fe;
1C52 : ff;
1C53 : ff;
1C54 : ff;
1C55 : ff;
1C56 : ff;
1C57 : ff;
1C58 : f8;
1C59 : f8;
1C5A : fc;
1C5B : fc;
1C5C : fe;
1C5D : fe;
1C5E : ff;
1C5F : ff;
1C60 : 00;
1C61 : 00;
1C62 : 01;
1C63 : 01;
1C64 : 83;
1C65 : 83;
1C66 : c7;
1C67 : c7;
1C68 : 00;
1C69 : 00;
1C6A : 01;
1C6B : 01;
1C6C : 03;
1C6D : 03;
1C6E : 07;
1C6F : 07;
1C70 : ff;
1C71 : ff;
1C72 : ff;
1C73 : ff;
1C74 : ff;
1C75 : ff;
1C76 : ff;
1C77 : cf;
1C78 : ff;
1C79 : ff;
1C7A : ff;
1C7B : ff;
1C7C : ff;
1C7D : ff;
1C7E : 7f;
1C7F : 0f;
1C80 : ff;
1C81 : ff;
1C82 : ff;
1C83 : ff;
1C84 : ff;
1C85 : ff;
1C86 : ff;
1C87 : ff;
1C88 : e7;
1C89 : f7;
1C8A : f7;
1C8B : f7;
1C8C : ff;
1C8D : ff;
1C8E : ff;
1C8F : ff;
1C90 : ff;
1C91 : ff;
1C92 : fb;
1C93 : fb;
1C94 : fb;
1C95 : f9;
1C96 : f9;
1C97 : f9;
1C98 : 07;
1C99 : 07;
1C9A : 03;
1C9B : 03;
1C9C : 03;
1C9D : 01;
1C9E : 01;
1C9F : 01;
1CA0 : 07;
1CA1 : 07;
1CA2 : 07;
1CA3 : 07;
1CA4 : 07;
1CA5 : 03;
1CA6 : 01;
1CA7 : 00;
1CA8 : 00;
1CA9 : 00;
1CAA : 00;
1CAB : 00;
1CAC : 00;
1CAD : 00;
1CAE : 00;
1CAF : 00;
1CB0 : ff;
1CB1 : ff;
1CB2 : ff;
1CB3 : ff;
1CB4 : ff;
1CB5 : ff;
1CB6 : ff;
1CB7 : 00;
1CB8 : 00;
1CB9 : 00;
1CBA : 00;
1CBB : 00;
1CBC : 00;
1CBD : 00;
1CBE : 00;
1CBF : 00;
1CC0 : 55;
1CC1 : aa;
1CC2 : 55;
1CC3 : aa;
1CC4 : 55;
1CC5 : aa;
1CC6 : 55;
1CC7 : aa;
1CC8 : 00;
1CC9 : 00;
1CCA : 00;
1CCB : 00;
1CCC : 00;
1CCD : 00;
1CCE : 00;
1CCF : 00;
1CD0 : c0;
1CD1 : c0;
1CD2 : c0;
1CD3 : 80;
1CD4 : 80;
1CD5 : 00;
1CD6 : 00;
1CD7 : 00;
1CD8 : 00;
1CD9 : 00;
1CDA : 00;
1CDB : 00;
1CDC : 00;
1CDD : 00;
1CDE : 00;
1CDF : 00;
1CE0 : c7;
1CE1 : c7;
1CE2 : c7;
1CE3 : 83;
1CE4 : 83;
1CE5 : 01;
1CE6 : 00;
1CE7 : 00;
1CE8 : 00;
1CE9 : 00;
1CEA : 00;
1CEB : 00;
1CEC : 00;
1CED : 00;
1CEE : 00;
1CEF : 00;
1CF0 : f8;
1CF1 : f8;
1CF2 : f8;
1CF3 : f8;
1CF4 : f8;
1CF5 : f8;
1CF6 : f8;
1CF7 : f8;
1CF8 : 00;
1CF9 : 00;
1CFA : 00;
1CFB : 00;
1CFC : 00;
1CFD : 00;
1CFE : 00;
1CFF : 00;
1D00 : f8;
1D01 : f8;
1D02 : f8;
1D03 : f8;
1D04 : ff;
1D05 : ff;
1D06 : ff;
1D07 : ff;
1D08 : 00;
1D09 : 00;
1D0A : 80;
1D0B : c0;
1D0C : ff;
1D0D : ff;
1D0E : ff;
1D0F : ff;
1D10 : 07;
1D11 : 05;
1D12 : 0d;
1D13 : 19;
1D14 : f3;
1D15 : c7;
1D16 : ff;
1D17 : ff;
1D18 : 07;
1D19 : 07;
1D1A : 0f;
1D1B : 1f;
1D1C : ff;
1D1D : ff;
1D1E : ff;
1D1F : ff;
1D20 : ff;
1D21 : ff;
1D22 : ff;
1D23 : ff;
1D24 : ff;
1D25 : ff;
1D26 : ff;
1D27 : ff;
1D28 : f8;
1D29 : f8;
1D2A : f8;
1D2B : f8;
1D2C : f8;
1D2D : f8;
1D2E : f0;
1D2F : e0;
1D30 : ff;
1D31 : ff;
1D32 : ff;
1D33 : ff;
1D34 : ff;
1D35 : ff;
1D36 : ff;
1D37 : 07;
1D38 : 1f;
1D39 : 0f;
1D3A : 07;
1D3B : 07;
1D3C : 07;
1D3D : 07;
1D3E : 07;
1D3F : 07;
1D40 : ff;
1D41 : ff;
1D42 : ff;
1D43 : ff;
1D44 : ff;
1D45 : ff;
1D46 : 7f;
1D47 : 3f;
1D48 : ff;
1D49 : ff;
1D4A : ff;
1D4B : ff;
1D4C : ff;
1D4D : ff;
1D4E : 7e;
1D4F : 3c;
1D50 : ff;
1D51 : ff;
1D52 : ff;
1D53 : ff;
1D54 : ff;
1D55 : ff;
1D56 : ff;
1D57 : ff;
1D58 : ff;
1D59 : 7f;
1D5A : 7f;
1D5B : 3f;
1D5C : 3f;
1D5D : 1f;
1D5E : 1f;
1D5F : 0f;
1D60 : ef;
1D61 : ef;
1D62 : ff;
1D63 : ff;
1D64 : ff;
1D65 : ff;
1D66 : ff;
1D67 : ff;
1D68 : 8f;
1D69 : 8f;
1D6A : df;
1D6B : ff;
1D6C : ff;
1D6D : ff;
1D6E : ff;
1D6F : ff;
1D70 : ff;
1D71 : ff;
1D72 : ff;
1D73 : ff;
1D74 : ff;
1D75 : ff;
1D76 : ff;
1D77 : ff;
1D78 : ff;
1D79 : f7;
1D7A : f7;
1D7B : e7;
1D7C : e7;
1D7D : c7;
1D7E : c7;
1D7F : 87;
1D80 : f8;
1D81 : f8;
1D82 : f8;
1D83 : f8;
1D84 : f8;
1D85 : f0;
1D86 : e0;
1D87 : 00;
1D88 : 00;
1D89 : 00;
1D8A : 00;
1D8B : 00;
1D8C : 00;
1D8D : 00;
1D8E : 00;
1D8F : 00;
1D90 : ff;
1D91 : ff;
1D92 : ff;
1D93 : ff;
1D94 : ff;
1D95 : ff;
1D96 : ff;
1D97 : fc;
1D98 : c0;
1D99 : 80;
1D9A : 00;
1D9B : 00;
1D9C : 00;
1D9D : 00;
1D9E : 00;
1D9F : 00;
1DA0 : ff;
1DA1 : ff;
1DA2 : ff;
1DA3 : 07;
1DA4 : 07;
1DA5 : 07;
1DA6 : 07;
1DA7 : 07;
1DA8 : 07;
1DA9 : 07;
1DAA : 07;
1DAB : 07;
1DAC : 07;
1DAD : 07;
1DAE : 07;
1DAF : 07;
1DB0 : ff;
1DB1 : ff;
1DB2 : ff;
1DB3 : 00;
1DB4 : 00;
1DB5 : 00;
1DB6 : 00;
1DB7 : 00;
1DB8 : 00;
1DB9 : 00;
1DBA : 00;
1DBB : 00;
1DBC : 00;
1DBD : 00;
1DBE : 00;
1DBF : 00;
1DC0 : 00;
1DC1 : 00;
1DC2 : 00;
1DC3 : 00;
1DC4 : fc;
1DC5 : fe;
1DC6 : ff;
1DC7 : ff;
1DC8 : 00;
1DC9 : 00;
1DCA : 00;
1DCB : 00;
1DCC : fc;
1DCD : fe;
1DCE : ff;
1DCF : ff;
1DD0 : ff;
1DD1 : ff;
1DD2 : ff;
1DD3 : 00;
1DD4 : 00;
1DD5 : 00;
1DD6 : 00;
1DD7 : 00;
1DD8 : 00;
1DD9 : ff;
1DDA : 00;
1DDB : 00;
1DDC : 00;
1DDD : 00;
1DDE : 00;
1DDF : 00;
1DE0 : ff;
1DE1 : ff;
1DE2 : ff;
1DE3 : e0;
1DE4 : e0;
1DE5 : e0;
1DE6 : e0;
1DE7 : e0;
1DE8 : 00;
1DE9 : 7f;
1DEA : 40;
1DEB : 40;
1DEC : 40;
1DED : 40;
1DEE : 40;
1DEF : 40;
1DF0 : 00;
1DF1 : 00;
1DF2 : 00;
1DF3 : 00;
1DF4 : 00;
1DF5 : 00;
1DF6 : 00;
1DF7 : 00;
1DF8 : 00;
1DF9 : 00;
1DFA : 00;
1DFB : 00;
1DFC : 00;
1DFD : 00;
1DFE : 00;
1DFF : 00;
1E00 : ff;
1E01 : ff;
1E02 : ff;
1E03 : ff;
1E04 : ff;
1E05 : ff;
1E06 : ff;
1E07 : ff;
1E08 : ff;
1E09 : ff;
1E0A : ff;
1E0B : ff;
1E0C : c0;
1E0D : 80;
1E0E : 00;
1E0F : 00;
1E10 : ff;
1E11 : ff;
1E12 : ff;
1E13 : ff;
1E14 : ff;
1E15 : ff;
1E16 : ff;
1E17 : ff;
1E18 : ff;
1E19 : ff;
1E1A : ff;
1E1B : ff;
1E1C : 1f;
1E1D : 0f;
1E1E : 07;
1E1F : 07;
1E20 : ff;
1E21 : ff;
1E22 : ff;
1E23 : ff;
1E24 : ff;
1E25 : ff;
1E26 : ff;
1E27 : ff;
1E28 : e0;
1E29 : f0;
1E2A : f8;
1E2B : f8;
1E2C : f8;
1E2D : f8;
1E2E : f8;
1E2F : f8;
1E30 : 07;
1E31 : 07;
1E32 : 07;
1E33 : 07;
1E34 : 05;
1E35 : 05;
1E36 : 0d;
1E37 : 19;
1E38 : 07;
1E39 : 07;
1E3A : 07;
1E3B : 07;
1E3C : 07;
1E3D : 07;
1E3E : 0f;
1E3F : 1f;
1E40 : 01;
1E41 : 03;
1E42 : 06;
1E43 : 04;
1E44 : 05;
1E45 : 05;
1E46 : 07;
1E47 : 07;
1E48 : 01;
1E49 : 03;
1E4A : 07;
1E4B : 07;
1E4C : 07;
1E4D : 07;
1E4E : 07;
1E4F : 07;
1E50 : ff;
1E51 : 7f;
1E52 : 7f;
1E53 : 3f;
1E54 : 1f;
1E55 : 1f;
1E56 : 0f;
1E57 : 00;
1E58 : f8;
1E59 : 70;
1E5A : 00;
1E5B : 00;
1E5C : 00;
1E5D : 00;
1E5E : 00;
1E5F : 00;
1E60 : ff;
1E61 : ff;
1E62 : ff;
1E63 : ff;
1E64 : ff;
1E65 : ff;
1E66 : ff;
1E67 : ff;
1E68 : ff;
1E69 : ff;
1E6A : ff;
1E6B : fe;
1E6C : fe;
1E6D : fc;
1E6E : fc;
1E6F : f8;
1E70 : ff;
1E71 : ff;
1E72 : ff;
1E73 : ff;
1E74 : ff;
1E75 : ff;
1E76 : ff;
1E77 : ff;
1E78 : 87;
1E79 : 07;
1E7A : 07;
1E7B : 07;
1E7C : 07;
1E7D : 07;
1E7E : 07;
1E7F : 07;
1E80 : ff;
1E81 : ff;
1E82 : ff;
1E83 : fc;
1E84 : f8;
1E85 : f8;
1E86 : f8;
1E87 : f8;
1E88 : 00;
1E89 : 00;
1E8A : 00;
1E8B : 00;
1E8C : 00;
1E8D : 00;
1E8E : 00;
1E8F : 00;
1E90 : 00;
1E91 : 00;
1E92 : 00;
1E93 : 00;
1E94 : 00;
1E95 : 00;
1E96 : 00;
1E97 : 00;
1E98 : 00;
1E99 : 00;
1E9A : 00;
1E9B : 00;
1E9C : 00;
1E9D : 00;
1E9E : 00;
1E9F : 00;
1EA0 : 3f;
1EA1 : 3f;
1EA2 : 3f;
1EA3 : 3f;
1EA4 : 3f;
1EA5 : 1f;
1EA6 : 0f;
1EA7 : 00;
1EA8 : 00;
1EA9 : 00;
1EAA : 00;
1EAB : 00;
1EAC : 00;
1EAD : 00;
1EAE : 00;
1EAF : 00;
1EB0 : c0;
1EB1 : c0;
1EB2 : c0;
1EB3 : c0;
1EB4 : c0;
1EB5 : c0;
1EB6 : c0;
1EB7 : c0;
1EB8 : 00;
1EB9 : 00;
1EBA : 00;
1EBB : 00;
1EBC : 00;
1EBD : 00;
1EBE : 00;
1EBF : 00;
1EC0 : 00;
1EC1 : 00;
1EC2 : 00;
1EC3 : e0;
1EC4 : f0;
1EC5 : f8;
1EC6 : f8;
1EC7 : f8;
1EC8 : 00;
1EC9 : 00;
1ECA : 00;
1ECB : 00;
1ECC : 00;
1ECD : 00;
1ECE : 00;
1ECF : 00;
1ED0 : f8;
1ED1 : f0;
1ED2 : e0;
1ED3 : 00;
1ED4 : 00;
1ED5 : 00;
1ED6 : 00;
1ED7 : 00;
1ED8 : 00;
1ED9 : 00;
1EDA : 00;
1EDB : 00;
1EDC : 00;
1EDD : 00;
1EDE : 00;
1EDF : 00;
1EE0 : 00;
1EE1 : 80;
1EE2 : 80;
1EE3 : c0;
1EE4 : c0;
1EE5 : c0;
1EE6 : c0;
1EE7 : c0;
1EE8 : 00;
1EE9 : 00;
1EEA : 00;
1EEB : 00;
1EEC : 00;
1EED : 00;
1EEE : 00;
1EEF : 00;
1EF0 : c0;
1EF1 : c0;
1EF2 : c0;
1EF3 : c0;
1EF4 : 80;
1EF5 : 00;
1EF6 : 00;
1EF7 : 00;
1EF8 : 00;
1EF9 : 00;
1EFA : 00;
1EFB : 00;
1EFC : 00;
1EFD : 00;
1EFE : 00;
1EFF : 00;
1F00 : f7;
1F01 : f7;
1F02 : e7;
1F03 : e7;
1F04 : c7;
1F05 : c7;
1F06 : 87;
1F07 : 07;
1F08 : 07;
1F09 : 07;
1F0A : 07;
1F0B : 07;
1F0C : 07;
1F0D : 07;
1F0E : 07;
1F0F : 07;
1F10 : f3;
1F11 : c7;
1F12 : ff;
1F13 : ff;
1F14 : ff;
1F15 : ff;
1F16 : ff;
1F17 : ff;
1F18 : ff;
1F19 : ff;
1F1A : ff;
1F1B : ff;
1F1C : ff;
1F1D : ff;
1F1E : ff;
1F1F : ff;
1F20 : 87;
1F21 : 87;
1F22 : 87;
1F23 : c7;
1F24 : c7;
1F25 : c7;
1F26 : e7;
1F27 : e7;
1F28 : 07;
1F29 : 07;
1F2A : 07;
1F2B : 07;
1F2C : 07;
1F2D : 07;
1F2E : 07;
1F2F : 07;
1F30 : 07;
1F31 : 07;
1F32 : 07;
1F33 : 03;
1F34 : 03;
1F35 : 01;
1F36 : 00;
1F37 : 00;
1F38 : 00;
1F39 : 00;
1F3A : 00;
1F3B : 00;
1F3C : 00;
1F3D : 00;
1F3E : 00;
1F3F : 00;
1F40 : ff;
1F41 : ff;
1F42 : ff;
1F43 : ff;
1F44 : ff;
1F45 : ff;
1F46 : ff;
1F47 : ff;
1F48 : 00;
1F49 : 7f;
1F4A : ff;
1F4B : 00;
1F4C : 00;
1F4D : 00;
1F4E : 00;
1F4F : 00;
1F50 : ff;
1F51 : ff;
1F52 : fe;
1F53 : ff;
1F54 : ff;
1F55 : ff;
1F56 : ff;
1F57 : ff;
1F58 : ff;
1F59 : ff;
1F5A : fe;
1F5B : fc;
1F5C : 00;
1F5D : 00;
1F5E : 00;
1F5F : 00;
1F60 : ff;
1F61 : ff;
1F62 : ff;
1F63 : ff;
1F64 : ff;
1F65 : ff;
1F66 : ff;
1F67 : ff;
1F68 : 20;
1F69 : 60;
1F6A : 60;
1F6B : 60;
1F6C : 60;
1F6D : 60;
1F6E : 60;
1F6F : 60;
1F70 : ff;
1F71 : ff;
1F72 : ff;
1F73 : ff;
1F74 : ff;
1F75 : ff;
1F76 : ff;
1F77 : ff;
1F78 : 60;
1F79 : e0;
1F7A : e0;
1F7B : 00;
1F7C : 00;
1F7D : 00;
1F7E : 00;
1F7F : 00;
1F80 : 00;
1F81 : 00;
1F82 : 00;
1F83 : 00;
1F84 : 00;
1F85 : 00;
1F86 : 00;
1F87 : 00;
1F88 : 00;
1F89 : 00;
1F8A : 00;
1F8B : 00;
1F8C : 00;
1F8D : 00;
1F8E : 00;
1F8F : 00;
1F90 : ff;
1F91 : ff;
1F92 : ff;
1F93 : ff;
1F94 : ff;
1F95 : ff;
1F96 : ff;
1F97 : ff;
1F98 : 00;
1F99 : ff;
1F9A : ff;
1F9B : 00;
1F9C : 00;
1F9D : 00;
1F9E : 00;
1F9F : 00;
1FA0 : 00;
1FA1 : 00;
1FA2 : 00;
1FA3 : 00;
1FA4 : 00;
1FA5 : 00;
1FA6 : 00;
1FA7 : 00;
1FA8 : 00;
1FA9 : 00;
1FAA : 00;
1FAB : 00;
1FAC : 00;
1FAD : 00;
1FAE : 00;
1FAF : 00;
1FB0 : 02;
1FB1 : ce;
1FB2 : 08;
1FB3 : 08;
1FB4 : 08;
1FB5 : 08;
1FB6 : 08;
1FB7 : 38;
1FB8 : fc;
1FB9 : 30;
1FBA : 30;
1FBB : 30;
1FBC : 30;
1FBD : 30;
1FBE : 30;
1FBF : 00;
1FC0 : 21;
1FC1 : 11;
1FC2 : 01;
1FC3 : 29;
1FC4 : 39;
1FC5 : 21;
1FC6 : 21;
1FC7 : e7;
1FC8 : c6;
1FC9 : ee;
1FCA : fe;
1FCB : d6;
1FCC : c6;
1FCD : c6;
1FCE : c6;
1FCF : 00;
1FD0 : 00;
1FD1 : 00;
1FD2 : 00;
1FD3 : 00;
1FD4 : 00;
1FD5 : 1c;
1FD6 : 1c;
1FD7 : 18;
1FD8 : 00;
1FD9 : 00;
1FDA : 00;
1FDB : 00;
1FDC : 00;
1FDD : 18;
1FDE : 18;
1FDF : 00;
1FE0 : 3c;
1FE1 : 46;
1FE2 : 93;
1FE3 : 9f;
1FE4 : 93;
1FE5 : c6;
1FE6 : 7c;
1FE7 : 38;
1FE8 : 38;
1FE9 : 44;
1FEA : 92;
1FEB : 9e;
1FEC : 92;
1FED : 44;
1FEE : 38;
1FEF : 00;
1FF0 : 00;
1FF1 : 00;
1FF2 : 00;
1FF3 : 00;
1FF4 : 00;
1FF5 : 00;
1FF6 : 00;
1FF7 : 00;
1FF8 : 00;
1FF9 : 00;
1FFA : 00;
1FFB : 00;
1FFC : 00;
1FFD : 00;
1FFE : 00;
1FFF : 00;
END;