DEPTH=32768;
WIDTH=8;
ADDRESS_RADIX=HEX;
DATA_RADIX=HEX;
CONTENT
BEGIN
   0 : 78;
   1 : a9;
   2 : 00;
   3 : 8d;
   4 : 01;
   5 : 20;
   6 : 8d;
   7 : 00;
   8 : 20;
   9 : d8;
   A : a2;
   B : ff;
   C : 9a;
   D : ad;
   E : 02;
   F : 20;
  10 : 10;
  11 : fb;
  12 : ad;
  13 : 02;
  14 : 20;
  15 : 10;
  16 : fb;
  17 : 4c;
  18 : 0c;
  19 : c3;
  1A : 48;
  1B : 8a;
  1C : 48;
  1D : 98;
  1E : 48;
  1F : a2;
  20 : 00;
  21 : 86;
  22 : 0b;
  23 : 8e;
  24 : 03;
  25 : 20;
  26 : a5;
  27 : 60;
  28 : f0;
  29 : 14;
  2A : a9;
  2B : 19;
  2C : 8d;
  2D : 00;
  2E : 07;
  2F : a9;
  30 : ec;
  31 : 8d;
  32 : 01;
  33 : 07;
  34 : a9;
  35 : 00;
  36 : 8d;
  37 : 02;
  38 : 07;
  39 : a9;
  3A : f8;
  3B : 8d;
  3C : 03;
  3D : 07;
  3E : a9;
  3F : 07;
  40 : 8d;
  41 : 14;
  42 : 40;
  43 : a2;
  44 : 09;
  45 : 86;
  46 : 16;
  47 : d0;
  48 : 6a;
  49 : b9;
  4A : 02;
  4B : 06;
  4C : 19;
  4D : 00;
  4E : 06;
  4F : 48;
  50 : 8d;
  51 : 06;
  52 : 20;
  53 : be;
  54 : 01;
  55 : 06;
  56 : 8e;
  57 : 06;
  58 : 20;
  59 : be;
  5A : 03;
  5B : 06;
  5C : bd;
  5D : c6;
  5E : d9;
  5F : 8d;
  60 : 07;
  61 : 20;
  62 : bd;
  63 : c7;
  64 : d9;
  65 : 8d;
  66 : 07;
  67 : 20;
  68 : 68;
  69 : 8d;
  6A : 06;
  6B : 20;
  6C : b9;
  6D : 01;
  6E : 06;
  6F : 18;
  70 : 69;
  71 : 20;
  72 : 8d;
  73 : 06;
  74 : 20;
  75 : bd;
  76 : c8;
  77 : d9;
  78 : 8d;
  79 : 07;
  7A : 20;
  7B : bd;
  7C : c9;
  7D : d9;
  7E : 8d;
  7F : 07;
  80 : 20;
  81 : a9;
  82 : 23;
  83 : 19;
  84 : 00;
  85 : 06;
  86 : 48;
  87 : 8d;
  88 : 06;
  89 : 20;
  8A : b9;
  8B : 04;
  8C : 06;
  8D : 8d;
  8E : 06;
  8F : 20;
  90 : aa;
  91 : ad;
  92 : 07;
  93 : 20;
  94 : ad;
  95 : 07;
  96 : 20;
  97 : 39;
  98 : 06;
  99 : 06;
  9A : 19;
  9B : 07;
  9C : 06;
  9D : a8;
  9E : 68;
  9F : 8d;
  A0 : 06;
  A1 : 20;
  A2 : 8e;
  A3 : 06;
  A4 : 20;
  A5 : 8c;
  A6 : 07;
  A7 : 20;
  A8 : a9;
  A9 : 08;
  AA : 18;
  AB : 65;
  AC : 14;
  AD : 85;
  AE : 14;
  AF : c6;
  B0 : 16;
  B1 : f0;
  B2 : 06;
  B3 : a4;
  B4 : 14;
  B5 : c4;
  B6 : 15;
  B7 : d0;
  B8 : 90;
  B9 : a5;
  BA : 72;
  BB : f0;
  BC : 27;
  BD : a9;
  BE : 22;
  BF : a2;
  C0 : 68;
  C1 : 20;
  C2 : 96;
  C3 : c1;
  C4 : a0;
  C5 : b0;
  C6 : a5;
  C7 : 5f;
  C8 : d0;
  C9 : 02;
  CA : a0;
  CB : 40;
  CC : 8c;
  CD : 07;
  CE : 20;
  CF : a9;
  D0 : 22;
  D1 : a2;
  D2 : 70;
  D3 : 20;
  D4 : 96;
  D5 : c1;
  D6 : a0;
  D7 : b0;
  D8 : a5;
  D9 : 5f;
  DA : f0;
  DB : 02;
  DC : a0;
  DD : 40;
  DE : 8c;
  DF : 07;
  E0 : 20;
  E1 : 4c;
  E2 : 26;
  E3 : c1;
  E4 : a5;
  E5 : 60;
  E6 : f0;
  E7 : 3e;
  E8 : a5;
  E9 : 16;
  EA : c9;
  EB : 04;
  EC : 90;
  ED : 38;
  EE : a9;
  EF : 20;
  F0 : a2;
  F1 : 4b;
  F2 : 20;
  F3 : 96;
  F4 : c1;
  F5 : a2;
  F6 : 00;
  F7 : b5;
  F8 : 61;
  F9 : d0;
  FA : 0c;
  FB : a9;
  FC : 3a;
  FD : 8d;
  FE : 07;
  FF : 20;
 100 : e8;
 101 : e0;
 102 : 07;
 103 : d0;
 104 : f2;
 105 : f0;
 106 : 0d;
 107 : b5;
 108 : 61;
 109 : 18;
 10A : 69;
 10B : 30;
 10C : 8d;
 10D : 07;
 10E : 20;
 10F : e8;
 110 : e0;
 111 : 07;
 112 : d0;
 113 : f3;
 114 : a9;
 115 : 20;
 116 : a2;
 117 : 46;
 118 : 20;
 119 : 96;
 11A : c1;
 11B : a5;
 11C : 93;
 11D : c9;
 11E : ff;
 11F : d0;
 120 : 02;
 121 : a9;
 122 : 00;
 123 : 20;
 124 : 48;
 125 : df;
 126 : ad;
 127 : 02;
 128 : 20;
 129 : 20;
 12A : 96;
 12B : c2;
 12C : e6;
 12D : 33;
 12E : a5;
 12F : 6a;
 130 : f0;
 131 : 0c;
 132 : e6;
 133 : 69;
 134 : a5;
 135 : 69;
 136 : c9;
 137 : 3c;
 138 : 90;
 139 : 04;
 13A : a9;
 13B : 00;
 13C : 85;
 13D : 6a;
 13E : 85;
 13F : 69;
 140 : 20;
 141 : 9d;
 142 : c1;
 143 : 20;
 144 : c7;
 145 : e4;
 146 : 20;
 147 : 5f;
 148 : e6;
 149 : a5;
 14A : 38;
 14B : f0;
 14C : 21;
 14D : a5;
 14E : 59;
 14F : d0;
 150 : 1d;
 151 : a9;
 152 : 0e;
 153 : 8d;
 154 : 10;
 155 : 40;
 156 : a9;
 157 : 00;
 158 : 85;
 159 : 38;
 15A : a9;
 15B : c0;
 15C : 8d;
 15D : 12;
 15E : 40;
 15F : a9;
 160 : ff;
 161 : 8d;
 162 : 13;
 163 : 40;
 164 : a9;
 165 : 0f;
 166 : 8d;
 167 : 15;
 168 : 40;
 169 : a9;
 16A : 1f;
 16B : 8d;
 16C : 15;
 16D : 40;
 16E : a5;
 16F : 60;
 170 : f0;
 171 : 18;
 172 : ad;
 173 : 02;
 174 : 20;
 175 : 29;
 176 : 40;
 177 : d0;
 178 : f9;
 179 : ad;
 17A : 02;
 17B : 20;
 17C : 29;
 17D : 40;
 17E : f0;
 17F : f9;
 180 : a5;
 181 : 0e;
 182 : 8d;
 183 : 05;
 184 : 20;
 185 : a5;
 186 : 0f;
 187 : 8d;
 188 : 05;
 189 : 20;
 18A : a9;
 18B : 05;
 18C : 45;
 18D : db;
 18E : 85;
 18F : db;
 190 : 68;
 191 : a8;
 192 : 68;
 193 : aa;
 194 : 68;
 195 : 40;
 196 : 8d;
 197 : 06;
 198 : 20;
 199 : 8e;
 19A : 06;
 19B : 20;
 19C : 60;
 19D : 20;
 19E : bf;
 19F : c1;
 1A0 : a5;
 1A1 : 12;
 1A2 : 85;
 1A3 : 10;
 1A4 : a5;
 1A5 : 13;
 1A6 : 85;
 1A7 : 11;
 1A8 : 20;
 1A9 : bf;
 1AA : c1;
 1AB : a5;
 1AC : 12;
 1AD : c5;
 1AE : 10;
 1AF : d0;
 1B0 : 07;
 1B1 : a5;
 1B2 : 13;
 1B3 : c5;
 1B4 : 11;
 1B5 : d0;
 1B6 : 01;
 1B7 : 60;
 1B8 : a9;
 1B9 : 00;
 1BA : 85;
 1BB : 12;
 1BC : 85;
 1BD : 13;
 1BE : 60;
 1BF : a9;
 1C0 : 01;
 1C1 : 8d;
 1C2 : 16;
 1C3 : 40;
 1C4 : a9;
 1C5 : 00;
 1C6 : 8d;
 1C7 : 16;
 1C8 : 40;
 1C9 : aa;
 1CA : a0;
 1CB : 08;
 1CC : 8a;
 1CD : 0a;
 1CE : aa;
 1CF : ad;
 1D0 : 16;
 1D1 : 40;
 1D2 : 20;
 1D3 : eb;
 1D4 : c1;
 1D5 : d0;
 1D6 : f5;
 1D7 : 86;
 1D8 : 12;
 1D9 : a2;
 1DA : 00;
 1DB : a0;
 1DC : 08;
 1DD : 8a;
 1DE : 0a;
 1DF : aa;
 1E0 : ad;
 1E1 : 17;
 1E2 : 40;
 1E3 : 20;
 1E4 : eb;
 1E5 : c1;
 1E6 : d0;
 1E7 : f5;
 1E8 : 86;
 1E9 : 13;
 1EA : 60;
 1EB : 29;
 1EC : 03;
 1ED : f0;
 1EE : 01;
 1EF : e8;
 1F0 : 88;
 1F1 : 60;
 1F2 : 20;
 1F3 : 57;
 1F4 : c2;
 1F5 : 20;
 1F6 : b9;
 1F7 : c2;
 1F8 : a9;
 1F9 : 10;
 1FA : 85;
 1FB : 0c;
 1FC : 8d;
 1FD : 00;
 1FE : 20;
 1FF : a9;
 200 : 00;
 201 : 85;
 202 : 0e;
 203 : 85;
 204 : 14;
 205 : 85;
 206 : 15;
 207 : 85;
 208 : 0f;
 209 : 20;
 20A : 68;
 20B : c2;
 20C : 20;
 20D : 57;
 20E : c2;
 20F : 20;
 210 : 8b;
 211 : c2;
 212 : 20;
 213 : c3;
 214 : c2;
 215 : a9;
 216 : 20;
 217 : a2;
 218 : 00;
 219 : 20;
 21A : 96;
 21B : c1;
 21C : a0;
 21D : 08;
 21E : a9;
 21F : b0;
 220 : 8d;
 221 : 07;
 222 : 20;
 223 : ca;
 224 : d0;
 225 : fa;
 226 : 88;
 227 : d0;
 228 : f7;
 229 : a9;
 22A : 23;
 22B : a2;
 22C : c0;
 22D : 20;
 22E : 96;
 22F : c1;
 230 : a2;
 231 : 40;
 232 : a9;
 233 : 00;
 234 : 8d;
 235 : 07;
 236 : 20;
 237 : ca;
 238 : d0;
 239 : fa;
 23A : 60;
 23B : 20;
 23C : b9;
 23D : c2;
 23E : 20;
 23F : 8b;
 240 : c2;
 241 : a9;
 242 : 0e;
 243 : 20;
 244 : 5c;
 245 : c2;
 246 : 20;
 247 : 4c;
 248 : c2;
 249 : 4c;
 24A : b0;
 24B : c2;
 24C : a9;
 24D : 00;
 24E : 8d;
 24F : 03;
 250 : 20;
 251 : a9;
 252 : 07;
 253 : 8d;
 254 : 14;
 255 : 40;
 256 : 60;
 257 : 20;
 258 : 8b;
 259 : c2;
 25A : a9;
 25B : 00;
 25C : 8d;
 25D : 01;
 25E : 20;
 25F : 85;
 260 : 0d;
 261 : 60;
 262 : a5;
 263 : 0d;
 264 : 09;
 265 : 10;
 266 : d0;
 267 : f7;
 268 : a0;
 269 : 1c;
 26A : a9;
 26B : f8;
 26C : 99;
 26D : 00;
 26E : 07;
 26F : 99;
 270 : 20;
 271 : 07;
 272 : 99;
 273 : 40;
 274 : 07;
 275 : 99;
 276 : 60;
 277 : 07;
 278 : 99;
 279 : 80;
 27A : 07;
 27B : 99;
 27C : a0;
 27D : 07;
 27E : 99;
 27F : c0;
 280 : 07;
 281 : 99;
 282 : e0;
 283 : 07;
 284 : 88;
 285 : 88;
 286 : 88;
 287 : 88;
 288 : 10;
 289 : e2;
 28A : 60;
 28B : ad;
 28C : 02;
 28D : 20;
 28E : 30;
 28F : fb;
 290 : ad;
 291 : 02;
 292 : 20;
 293 : 10;
 294 : fb;
 295 : 60;
 296 : a5;
 297 : 0d;
 298 : 8d;
 299 : 01;
 29A : 20;
 29B : a9;
 29C : 00;
 29D : a2;
 29E : 00;
 29F : 20;
 2A0 : 96;
 2A1 : c1;
 2A2 : a9;
 2A3 : 00;
 2A4 : 8d;
 2A5 : 05;
 2A6 : 20;
 2A7 : 8d;
 2A8 : 05;
 2A9 : 20;
 2AA : a5;
 2AB : 0c;
 2AC : 8d;
 2AD : 00;
 2AE : 20;
 2AF : 60;
 2B0 : 20;
 2B1 : 8b;
 2B2 : c2;
 2B3 : a5;
 2B4 : 0c;
 2B5 : 09;
 2B6 : 80;
 2B7 : d0;
 2B8 : 04;
 2B9 : a5;
 2BA : 0c;
 2BB : 29;
 2BC : 7f;
 2BD : 85;
 2BE : 0c;
 2BF : 8d;
 2C0 : 00;
 2C1 : 20;
 2C2 : 60;
 2C3 : a9;
 2C4 : 3f;
 2C5 : a2;
 2C6 : 00;
 2C7 : 20;
 2C8 : 96;
 2C9 : c1;
 2CA : a0;
 2CB : 20;
 2CC : bd;
 2CD : e7;
 2CE : c2;
 2CF : 8d;
 2D0 : 07;
 2D1 : 20;
 2D2 : e8;
 2D3 : 88;
 2D4 : d0;
 2D5 : f6;
 2D6 : a9;
 2D7 : 3f;
 2D8 : 8d;
 2D9 : 06;
 2DA : 20;
 2DB : a9;
 2DC : 00;
 2DD : 8d;
 2DE : 06;
 2DF : 20;
 2E0 : 8d;
 2E1 : 06;
 2E2 : 20;
 2E3 : 8d;
 2E4 : 06;
 2E5 : 20;
 2E6 : 60;
 2E7 : 19;
 2E8 : 0f;
 2E9 : 10;
 2EA : 30;
 2EB : 19;
 2EC : 16;
 2ED : 26;
 2EE : 36;
 2EF : 19;
 2F0 : 0f;
 2F1 : 18;
 2F2 : 28;
 2F3 : 19;
 2F4 : 0f;
 2F5 : 17;
 2F6 : 07;
 2F7 : 19;
 2F8 : 30;
 2F9 : 21;
 2FA : 26;
 2FB : 19;
 2FC : 0f;
 2FD : 26;
 2FE : 30;
 2FF : 19;
 300 : 0f;
 301 : 15;
 302 : 30;
 303 : 19;
 304 : 0f;
 305 : 21;
 306 : 30;
 307 : a5;
 308 : 12;
 309 : d0;
 30A : fc;
 30B : 60;
 30C : a0;
 30D : 00;
 30E : 84;
 30F : e0;
 310 : c8;
 311 : 84;
 312 : e1;
 313 : 88;
 314 : 98;
 315 : a2;
 316 : 07;
 317 : 91;
 318 : e0;
 319 : c8;
 31A : d0;
 31B : fb;
 31C : e6;
 31D : e1;
 31E : ca;
 31F : d0;
 320 : f6;
 321 : a2;
 322 : 00;
 323 : a4;
 324 : 08;
 325 : c0;
 326 : 93;
 327 : d0;
 328 : 0a;
 329 : a4;
 32A : 09;
 32B : d0;
 32C : 06;
 32D : a4;
 32E : 0a;
 32F : d0;
 330 : 02;
 331 : a2;
 332 : 08;
 333 : 95;
 334 : 00;
 335 : e8;
 336 : d0;
 337 : fb;
 338 : a9;
 339 : 93;
 33A : 85;
 33B : 08;
 33C : 20;
 33D : f2;
 33E : c1;
 33F : a9;
 340 : 00;
 341 : 85;
 342 : db;
 343 : 20;
 344 : 42;
 345 : e6;
 346 : a9;
 347 : 01;
 348 : 85;
 349 : b5;
 34A : a2;
 34B : ff;
 34C : 9a;
 34D : a9;
 34E : 0f;
 34F : 8d;
 350 : 15;
 351 : 40;
 352 : a9;
 353 : 00;
 354 : 85;
 355 : 38;
 356 : 85;
 357 : 59;
 358 : 85;
 359 : b2;
 35A : 85;
 35B : 60;
 35C : 85;
 35D : 70;
 35E : 20;
 35F : 83;
 360 : de;
 361 : 20;
 362 : b0;
 363 : c2;
 364 : a9;
 365 : 01;
 366 : 85;
 367 : 72;
 368 : a5;
 369 : 12;
 36A : d0;
 36B : fc;
 36C : a9;
 36D : 08;
 36E : 85;
 36F : 70;
 370 : 20;
 371 : fb;
 372 : cb;
 373 : a5;
 374 : 12;
 375 : 29;
 376 : 10;
 377 : d0;
 378 : 1f;
 379 : a5;
 37A : 12;
 37B : 29;
 37C : 20;
 37D : f0;
 37E : 0c;
 37F : a5;
 380 : 5f;
 381 : 49;
 382 : 01;
 383 : 85;
 384 : 5f;
 385 : 20;
 386 : 07;
 387 : c3;
 388 : 4c;
 389 : 6c;
 38A : c3;
 38B : 20;
 38C : 70;
 38D : d6;
 38E : c6;
 38F : 71;
 390 : d0;
 391 : de;
 392 : c6;
 393 : 70;
 394 : d0;
 395 : da;
 396 : e6;
 397 : 59;
 398 : a5;
 399 : 59;
 39A : d0;
 39B : 07;
 39C : a5;
 39D : 5f;
 39E : f0;
 39F : 03;
 3A0 : 20;
 3A1 : 8e;
 3A2 : da;
 3A3 : a9;
 3A4 : 00;
 3A5 : 85;
 3A6 : 72;
 3A7 : 20;
 3A8 : 07;
 3A9 : c3;
 3AA : a9;
 3AB : 02;
 3AC : 85;
 3AD : 68;
 3AE : a5;
 3AF : 59;
 3B0 : d0;
 3B1 : 04;
 3B2 : a5;
 3B3 : 5f;
 3B4 : d0;
 3B5 : 54;
 3B6 : a9;
 3B7 : 01;
 3B8 : 85;
 3B9 : 58;
 3BA : a5;
 3BB : 59;
 3BC : d0;
 3BD : 09;
 3BE : a2;
 3BF : 06;
 3C0 : a9;
 3C1 : 00;
 3C2 : 95;
 3C3 : 61;
 3C4 : ca;
 3C5 : 10;
 3C6 : fb;
 3C7 : a9;
 3C8 : 10;
 3C9 : 85;
 3CA : 73;
 3CB : a9;
 3CC : 00;
 3CD : 85;
 3CE : 74;
 3CF : 85;
 3D0 : 77;
 3D1 : 85;
 3D2 : 75;
 3D3 : 85;
 3D4 : 76;
 3D5 : 85;
 3D6 : 79;
 3D7 : 85;
 3D8 : 94;
 3D9 : a5;
 3DA : 59;
 3DB : f0;
 3DC : 2d;
 3DD : a9;
 3DE : 09;
 3DF : 85;
 3E0 : 74;
 3E1 : a9;
 3E2 : 40;
 3E3 : 85;
 3E4 : 73;
 3E5 : a9;
 3E6 : 01;
 3E7 : 85;
 3E8 : 77;
 3E9 : a9;
 3EA : 00;
 3EB : 8d;
 3EC : 15;
 3ED : 40;
 3EE : 85;
 3EF : 54;
 3F0 : 85;
 3F1 : 55;
 3F2 : 85;
 3F3 : 56;
 3F4 : 85;
 3F5 : 57;
 3F6 : 85;
 3F7 : 33;
 3F8 : a9;
 3F9 : f4;
 3FA : 85;
 3FB : ac;
 3FC : a9;
 3FD : ed;
 3FE : 85;
 3FF : ad;
 400 : ad;
 401 : f2;
 402 : ed;
 403 : 85;
 404 : ae;
 405 : ad;
 406 : f3;
 407 : ed;
 408 : 85;
 409 : af;
 40A : a9;
 40B : 00;
 40C : 85;
 40D : 78;
 40E : 85;
 40F : 7a;
 410 : a9;
 411 : 00;
 412 : 85;
 413 : b1;
 414 : 85;
 415 : a8;
 416 : 85;
 417 : 60;
 418 : 85;
 419 : 9e;
 41A : 85;
 41B : 9f;
 41C : 85;
 41D : 9c;
 41E : 85;
 41F : a0;
 420 : 85;
 421 : a1;
 422 : 85;
 423 : a2;
 424 : 85;
 425 : a3;
 426 : 85;
 427 : a4;
 428 : 85;
 429 : a5;
 42A : 85;
 42B : a6;
 42C : 85;
 42D : a7;
 42E : 20;
 42F : 1d;
 430 : de;
 431 : a9;
 432 : 02;
 433 : 85;
 434 : b5;
 435 : 20;
 436 : 0b;
 437 : c6;
 438 : a9;
 439 : 03;
 43A : 85;
 43B : b5;
 43C : 20;
 43D : b9;
 43E : c2;
 43F : 20;
 440 : 4b;
 441 : ca;
 442 : 20;
 443 : ce;
 444 : c5;
 445 : 20;
 446 : af;
 447 : e4;
 448 : 20;
 449 : ff;
 44A : c5;
 44B : a9;
 44C : c8;
 44D : 85;
 44E : 93;
 44F : 20;
 450 : 13;
 451 : c6;
 452 : 20;
 453 : 68;
 454 : c2;
 455 : 20;
 456 : 36;
 457 : cc;
 458 : 20;
 459 : 6a;
 45A : c9;
 45B : 20;
 45C : 5b;
 45D : ce;
 45E : 20;
 45F : b0;
 460 : cf;
 461 : 20;
 462 : 1b;
 463 : ca;
 464 : 20;
 465 : 44;
 466 : c6;
 467 : 20;
 468 : 99;
 469 : e3;
 46A : a5;
 46B : 5d;
 46C : d0;
 46D : 13;
 46E : a5;
 46F : 5e;
 470 : d0;
 471 : 4d;
 472 : a5;
 473 : 33;
 474 : 29;
 475 : 03;
 476 : d0;
 477 : d7;
 478 : 20;
 479 : 9d;
 47A : c7;
 47B : 20;
 47C : 6c;
 47D : c6;
 47E : 4c;
 47F : 4f;
 480 : c4;
 481 : a5;
 482 : 59;
 483 : d0;
 484 : 3e;
 485 : a9;
 486 : 00;
 487 : 85;
 488 : 76;
 489 : 85;
 48A : 78;
 48B : 85;
 48C : 77;
 48D : 85;
 48E : 79;
 48F : 85;
 490 : 7a;
 491 : a9;
 492 : 08;
 493 : 85;
 494 : b5;
 495 : 20;
 496 : 0b;
 497 : c6;
 498 : c6;
 499 : 68;
 49A : 30;
 49B : 03;
 49C : 4c;
 49D : 10;
 49E : c4;
 49F : a9;
 4A0 : 00;
 4A1 : 85;
 4A2 : 60;
 4A3 : 20;
 4A4 : 3e;
 4A5 : dd;
 4A6 : a9;
 4A7 : 09;
 4A8 : 85;
 4A9 : b5;
 4AA : a5;
 4AB : 12;
 4AC : 29;
 4AD : 10;
 4AE : d0;
 4AF : 04;
 4B0 : a5;
 4B1 : b5;
 4B2 : d0;
 4B3 : f6;
 4B4 : a9;
 4B5 : 00;
 4B6 : 85;
 4B7 : b5;
 4B8 : a5;
 4B9 : 12;
 4BA : f0;
 4BB : fc;
 4BC : 4c;
 4BD : 4a;
 4BE : c3;
 4BF : a5;
 4C0 : 59;
 4C1 : f0;
 4C2 : 12;
 4C3 : a9;
 4C4 : 00;
 4C5 : 85;
 4C6 : b5;
 4C7 : e6;
 4C8 : b0;
 4C9 : a5;
 4CA : b0;
 4CB : 29;
 4CC : 03;
 4CD : f0;
 4CE : 03;
 4CF : 4c;
 4D0 : 4a;
 4D1 : c3;
 4D2 : 4c;
 4D3 : 3c;
 4D4 : c3;
 4D5 : a9;
 4D6 : 0a;
 4D7 : 85;
 4D8 : b5;
 4D9 : 20;
 4DA : 0b;
 4DB : c6;
 4DC : e6;
 4DD : 68;
 4DE : e6;
 4DF : 58;
 4E0 : a0;
 4E1 : 00;
 4E2 : a5;
 4E3 : 58;
 4E4 : c9;
 4E5 : 33;
 4E6 : d0;
 4E7 : 03;
 4E8 : 4c;
 4E9 : 6c;
 4EA : c5;
 4EB : c8;
 4EC : 38;
 4ED : e9;
 4EE : 05;
 4EF : b0;
 4F0 : fa;
 4F1 : 88;
 4F2 : c0;
 4F3 : 08;
 4F4 : 90;
 4F5 : 02;
 4F6 : a0;
 4F7 : 08;
 4F8 : 84;
 4F9 : 7e;
 4FA : 69;
 4FB : 05;
 4FC : c9;
 4FD : 01;
 4FE : f0;
 4FF : 03;
 500 : 4c;
 501 : 10;
 502 : c4;
 503 : a9;
 504 : 00;
 505 : 85;
 506 : 60;
 507 : 20;
 508 : 53;
 509 : de;
 50A : a9;
 50B : 02;
 50C : 85;
 50D : b5;
 50E : 20;
 50F : 0b;
 510 : c6;
 511 : 20;
 512 : b9;
 513 : c2;
 514 : 20;
 515 : 72;
 516 : ca;
 517 : 20;
 518 : ce;
 519 : c5;
 51A : 20;
 51B : ff;
 51C : c5;
 51D : 20;
 51E : c5;
 51F : cb;
 520 : a9;
 521 : 06;
 522 : 85;
 523 : b5;
 524 : a9;
 525 : 01;
 526 : 85;
 527 : 7a;
 528 : 85;
 529 : 7d;
 52A : a9;
 52B : 1e;
 52C : 85;
 52D : 93;
 52E : 20;
 52F : 13;
 530 : c6;
 531 : a5;
 532 : 93;
 533 : f0;
 534 : 27;
 535 : 20;
 536 : 68;
 537 : c2;
 538 : 20;
 539 : ed;
 53A : c8;
 53B : 20;
 53C : 36;
 53D : cc;
 53E : 20;
 53F : 6a;
 540 : c9;
 541 : 20;
 542 : 5b;
 543 : ce;
 544 : 20;
 545 : b0;
 546 : cf;
 547 : 20;
 548 : 1b;
 549 : ca;
 54A : 20;
 54B : 5f;
 54C : c6;
 54D : a5;
 54E : 33;
 54F : 29;
 550 : 01;
 551 : d0;
 552 : db;
 553 : 20;
 554 : 9d;
 555 : c7;
 556 : 20;
 557 : 6c;
 558 : c6;
 559 : 4c;
 55A : 2e;
 55B : c5;
 55C : a9;
 55D : 0a;
 55E : 85;
 55F : b5;
 560 : 20;
 561 : 0b;
 562 : c6;
 563 : a9;
 564 : 00;
 565 : 85;
 566 : 7d;
 567 : 85;
 568 : 7a;
 569 : 4c;
 56A : 10;
 56B : c4;
 56C : 20;
 56D : f2;
 56E : c1;
 56F : 20;
 570 : f9;
 571 : db;
 572 : 20;
 573 : 72;
 574 : ca;
 575 : a9;
 576 : 08;
 577 : 85;
 578 : 29;
 579 : 85;
 57A : 2b;
 57B : a9;
 57C : 00;
 57D : 85;
 57E : 60;
 57F : 85;
 580 : 28;
 581 : a9;
 582 : 09;
 583 : 85;
 584 : 2a;
 585 : a9;
 586 : 07;
 587 : 85;
 588 : b5;
 589 : 20;
 58A : 62;
 58B : c2;
 58C : 20;
 58D : b0;
 58E : c2;
 58F : 20;
 590 : fb;
 591 : cb;
 592 : a9;
 593 : 01;
 594 : 85;
 595 : 39;
 596 : 20;
 597 : 68;
 598 : c2;
 599 : 20;
 59A : 5b;
 59B : ce;
 59C : a5;
 59D : 33;
 59E : 6a;
 59F : b0;
 5A0 : 03;
 5A1 : 20;
 5A2 : d4;
 5A3 : cd;
 5A4 : a5;
 5A5 : 28;
 5A6 : c9;
 5A7 : 08;
 5A8 : d0;
 5A9 : e5;
 5AA : 20;
 5AB : fb;
 5AC : cb;
 5AD : a9;
 5AE : 01;
 5AF : 85;
 5B0 : 39;
 5B1 : 20;
 5B2 : 68;
 5B3 : c2;
 5B4 : 20;
 5B5 : a7;
 5B6 : ce;
 5B7 : a5;
 5B8 : 33;
 5B9 : 6a;
 5BA : b0;
 5BB : 03;
 5BC : 20;
 5BD : d4;
 5BE : cd;
 5BF : a5;
 5C0 : b5;
 5C1 : d0;
 5C2 : e7;
 5C3 : a5;
 5C4 : 12;
 5C5 : f0;
 5C6 : fc;
 5C7 : a9;
 5C8 : 01;
 5C9 : 85;
 5CA : 58;
 5CB : 4c;
 5CC : 10;
 5CD : c4;
 5CE : a9;
 5CF : 01;
 5D0 : 85;
 5D1 : 28;
 5D2 : 85;
 5D3 : 2a;
 5D4 : a9;
 5D5 : 08;
 5D6 : 85;
 5D7 : 29;
 5D8 : 85;
 5D9 : 2b;
 5DA : a9;
 5DB : 00;
 5DC : 85;
 5DD : 2c;
 5DE : 85;
 5DF : 5d;
 5E0 : 85;
 5E1 : 5c;
 5E2 : 85;
 5E3 : 5e;
 5E4 : 20;
 5E5 : c5;
 5E6 : cb;
 5E7 : 20;
 5E8 : 9a;
 5E9 : d6;
 5EA : 20;
 5EB : 06;
 5EC : cb;
 5ED : 20;
 5EE : 8b;
 5EF : c2;
 5F0 : 20;
 5F1 : c3;
 5F2 : c2;
 5F3 : a6;
 5F4 : 58;
 5F5 : bd;
 5F6 : 03;
 5F7 : cc;
 5F8 : 85;
 5F9 : 5b;
 5FA : a9;
 5FB : 01;
 5FC : 85;
 5FD : 60;
 5FE : 60;
 5FF : 20;
 600 : 68;
 601 : c2;
 602 : 20;
 603 : b0;
 604 : c2;
 605 : 20;
 606 : 3b;
 607 : c2;
 608 : 4c;
 609 : 62;
 60A : c2;
 60B : a5;
 60C : b5;
 60D : d0;
 60E : fc;
 60F : 60;
 610 : 4c;
 611 : c3;
 612 : c4;
 613 : 20;
 614 : fb;
 615 : cb;
 616 : a9;
 617 : 01;
 618 : 85;
 619 : 39;
 61A : a5;
 61B : 12;
 61C : 29;
 61D : 10;
 61E : f0;
 61F : 23;
 620 : a5;
 621 : 59;
 622 : d0;
 623 : ec;
 624 : a9;
 625 : 01;
 626 : 85;
 627 : b2;
 628 : a9;
 629 : 06;
 62A : 85;
 62B : df;
 62C : 20;
 62D : 07;
 62E : c3;
 62F : a5;
 630 : 12;
 631 : 29;
 632 : 10;
 633 : f0;
 634 : fa;
 635 : a9;
 636 : 06;
 637 : 85;
 638 : df;
 639 : a9;
 63A : 00;
 63B : 85;
 63C : b2;
 63D : 20;
 63E : 07;
 63F : c3;
 640 : 4c;
 641 : fb;
 642 : cb;
 643 : 60;
 644 : a5;
 645 : 33;
 646 : 29;
 647 : 3f;
 648 : d0;
 649 : 14;
 64A : a5;
 64B : 93;
 64C : c9;
 64D : ff;
 64E : f0;
 64F : 0e;
 650 : c6;
 651 : 93;
 652 : d0;
 653 : 0a;
 654 : 20;
 655 : d7;
 656 : cb;
 657 : a9;
 658 : 08;
 659 : 85;
 65A : 7e;
 65B : 4c;
 65C : ed;
 65D : c8;
 65E : 60;
 65F : a5;
 660 : 33;
 661 : 29;
 662 : 3f;
 663 : d0;
 664 : f9;
 665 : a5;
 666 : 93;
 667 : f0;
 668 : f5;
 669 : c6;
 66A : 93;
 66B : 60;
 66C : a2;
 66D : 4f;
 66E : bd;
 66F : e6;
 670 : 03;
 671 : f0;
 672 : 5a;
 673 : 10;
 674 : 13;
 675 : 29;
 676 : 7f;
 677 : a8;
 678 : bd;
 679 : 36;
 67A : 04;
 67B : 85;
 67C : 1f;
 67D : bd;
 67E : 86;
 67F : 04;
 680 : 85;
 681 : 20;
 682 : b9;
 683 : 5d;
 684 : c7;
 685 : 4c;
 686 : da;
 687 : c6;
 688 : bd;
 689 : 36;
 68A : 04;
 68B : 85;
 68C : 1f;
 68D : bd;
 68E : 86;
 68F : 04;
 690 : 85;
 691 : 20;
 692 : bd;
 693 : 26;
 694 : 05;
 695 : 29;
 696 : 78;
 697 : f0;
 698 : 34;
 699 : bd;
 69A : 26;
 69B : 05;
 69C : 10;
 69D : 14;
 69E : 29;
 69F : 07;
 6A0 : 85;
 6A1 : 32;
 6A2 : bd;
 6A3 : 26;
 6A4 : 05;
 6A5 : 4a;
 6A6 : 29;
 6A7 : 3c;
 6A8 : 18;
 6A9 : 65;
 6AA : 32;
 6AB : a8;
 6AC : b9;
 6AD : 78;
 6AE : c7;
 6AF : 4c;
 6B0 : da;
 6B1 : c6;
 6B2 : 29;
 6B3 : 07;
 6B4 : f0;
 6B5 : 1a;
 6B6 : 29;
 6B7 : 01;
 6B8 : 49;
 6B9 : 01;
 6BA : 85;
 6BB : 32;
 6BC : bd;
 6BD : 26;
 6BE : 05;
 6BF : 4a;
 6C0 : 4a;
 6C1 : 29;
 6C2 : 1e;
 6C3 : 18;
 6C4 : 65;
 6C5 : 32;
 6C6 : 18;
 6C7 : 69;
 6C8 : 07;
 6C9 : a8;
 6CA : 4c;
 6CB : d6;
 6CC : c6;
 6CD : 4c;
 6CE : 56;
 6CF : c7;
 6D0 : bd;
 6D1 : 26;
 6D2 : 05;
 6D3 : 4a;
 6D4 : 4a;
 6D5 : 4a;
 6D6 : a8;
 6D7 : b9;
 6D8 : 64;
 6D9 : c7;
 6DA : 29;
 6DB : ff;
 6DC : f0;
 6DD : 75;
 6DE : 20;
 6DF : fc;
 6E0 : d8;
 6E1 : a5;
 6E2 : 5c;
 6E3 : d0;
 6E4 : 20;
 6E5 : a5;
 6E6 : 79;
 6E7 : d0;
 6E8 : 1c;
 6E9 : a5;
 6EA : 7a;
 6EB : d0;
 6EC : 18;
 6ED : a5;
 6EE : 28;
 6EF : c5;
 6F0 : 1f;
 6F1 : d0;
 6F2 : 12;
 6F3 : a5;
 6F4 : 2a;
 6F5 : c5;
 6F6 : 20;
 6F7 : d0;
 6F8 : 0c;
 6F9 : a9;
 6FA : 05;
 6FB : 85;
 6FC : df;
 6FD : a9;
 6FE : 01;
 6FF : 85;
 700 : 5c;
 701 : a9;
 702 : 0c;
 703 : 85;
 704 : 2c;
 705 : a0;
 706 : 09;
 707 : b9;
 708 : 76;
 709 : 05;
 70A : f0;
 70B : 42;
 70C : c9;
 70D : 09;
 70E : b0;
 70F : 3e;
 710 : b9;
 711 : 80;
 712 : 05;
 713 : c5;
 714 : 1f;
 715 : d0;
 716 : 37;
 717 : b9;
 718 : 94;
 719 : 05;
 71A : c5;
 71B : 20;
 71C : d0;
 71D : 30;
 71E : e6;
 71F : 9e;
 720 : a9;
 721 : 00;
 722 : 85;
 723 : a0;
 724 : 85;
 725 : a1;
 726 : 85;
 727 : a2;
 728 : 85;
 729 : a3;
 72A : a9;
 72B : 64;
 72C : 99;
 72D : c6;
 72E : 05;
 72F : b9;
 730 : 76;
 731 : 05;
 732 : 99;
 733 : d0;
 734 : 05;
 735 : a5;
 736 : 6a;
 737 : 99;
 738 : da;
 739 : 05;
 73A : e6;
 73B : 6a;
 73C : a9;
 73D : 09;
 73E : 99;
 73F : 76;
 740 : 05;
 741 : b9;
 742 : a8;
 743 : 05;
 744 : 4a;
 745 : 4a;
 746 : 29;
 747 : 07;
 748 : 18;
 749 : 69;
 74A : 20;
 74B : 99;
 74C : a8;
 74D : 05;
 74E : 88;
 74F : 10;
 750 : b6;
 751 : 30;
 752 : 03;
 753 : 20;
 754 : fc;
 755 : d8;
 756 : ca;
 757 : 30;
 758 : 03;
 759 : 4c;
 75A : 6e;
 75B : c6;
 75C : 60;
 75D : 27;
 75E : 03;
 75F : 04;
 760 : 05;
 761 : 06;
 762 : 07;
 763 : 00;
 764 : 00;
 765 : 0b;
 766 : 0c;
 767 : 0d;
 768 : 0e;
 769 : 0d;
 76A : 0c;
 76B : 0b;
 76C : 00;
 76D : 0f;
 76E : 10;
 76F : 11;
 770 : 12;
 771 : 13;
 772 : 14;
 773 : 15;
 774 : 16;
 775 : 13;
 776 : 14;
 777 : 11;
 778 : 12;
 779 : 0f;
 77A : 10;
 77B : 00;
 77C : 00;
 77D : 17;
 77E : 18;
 77F : 19;
 780 : 1a;
 781 : 1b;
 782 : 1c;
 783 : 1d;
 784 : 1e;
 785 : 1f;
 786 : 20;
 787 : 21;
 788 : 22;
 789 : 23;
 78A : 24;
 78B : 25;
 78C : 26;
 78D : 1f;
 78E : 20;
 78F : 21;
 790 : 22;
 791 : 1b;
 792 : 1c;
 793 : 1d;
 794 : 1e;
 795 : 17;
 796 : 18;
 797 : 19;
 798 : 1a;
 799 : 00;
 79A : 00;
 79B : 00;
 79C : 00;
 79D : a2;
 79E : 4f;
 79F : bd;
 7A0 : e6;
 7A1 : 03;
 7A2 : d0;
 7A3 : 03;
 7A4 : 4c;
 7A5 : a6;
 7A6 : c8;
 7A7 : 48;
 7A8 : bc;
 7A9 : 86;
 7AA : 04;
 7AB : 84;
 7AC : 20;
 7AD : 20;
 7AE : eb;
 7AF : cb;
 7B0 : bc;
 7B1 : 36;
 7B2 : 04;
 7B3 : 84;
 7B4 : 1f;
 7B5 : 68;
 7B6 : 10;
 7B7 : 13;
 7B8 : fe;
 7B9 : e6;
 7BA : 03;
 7BB : bd;
 7BC : e6;
 7BD : 03;
 7BE : c9;
 7BF : 87;
 7C0 : d0;
 7C1 : e2;
 7C2 : a9;
 7C3 : 00;
 7C4 : 9d;
 7C5 : e6;
 7C6 : 03;
 7C7 : 91;
 7C8 : 34;
 7C9 : f0;
 7CA : d9;
 7CB : b1;
 7CC : 34;
 7CD : a8;
 7CE : f0;
 7CF : 68;
 7D0 : c0;
 7D1 : 02;
 7D2 : d0;
 7D3 : 0a;
 7D4 : e6;
 7D5 : a4;
 7D6 : a9;
 7D7 : 80;
 7D8 : 9d;
 7D9 : e6;
 7DA : 03;
 7DB : 4c;
 7DC : a6;
 7DD : c8;
 7DE : c0;
 7DF : 03;
 7E0 : d0;
 7E1 : 0c;
 7E2 : bd;
 7E3 : d6;
 7E4 : 04;
 7E5 : 09;
 7E6 : 10;
 7E7 : a4;
 7E8 : 1f;
 7E9 : 91;
 7EA : 34;
 7EB : 4c;
 7EC : 30;
 7ED : c8;
 7EE : c0;
 7EF : 04;
 7F0 : d0;
 7F1 : 0e;
 7F2 : a4;
 7F3 : 1f;
 7F4 : a9;
 7F5 : 08;
 7F6 : 91;
 7F7 : 34;
 7F8 : a9;
 7F9 : 28;
 7FA : 20;
 7FB : fc;
 7FC : d8;
 7FD : 4c;
 7FE : 30;
 7FF : c8;
 800 : c0;
 801 : 05;
 802 : d0;
 803 : 11;
 804 : a4;
 805 : 1f;
 806 : a9;
 807 : 06;
 808 : 91;
 809 : 34;
 80A : a9;
 80B : 28;
 80C : 18;
 80D : 65;
 80E : 5b;
 80F : 20;
 810 : fc;
 811 : d8;
 812 : 4c;
 813 : 30;
 814 : c8;
 815 : c0;
 816 : 08;
 817 : f0;
 818 : 0f;
 819 : c0;
 81A : 06;
 81B : d0;
 81C : 13;
 81D : a4;
 81E : 1f;
 81F : a9;
 820 : 00;
 821 : 91;
 822 : 34;
 823 : 20;
 824 : fc;
 825 : d8;
 826 : c6;
 827 : a7;
 828 : e6;
 829 : a7;
 82A : 20;
 82B : ad;
 82C : c8;
 82D : 4c;
 82E : 30;
 82F : c8;
 830 : a9;
 831 : 00;
 832 : 9d;
 833 : e6;
 834 : 03;
 835 : 4c;
 836 : a6;
 837 : c8;
 838 : bd;
 839 : 26;
 83A : 05;
 83B : 18;
 83C : 69;
 83D : 08;
 83E : 9d;
 83F : 26;
 840 : 05;
 841 : 29;
 842 : 7f;
 843 : c9;
 844 : 48;
 845 : b0;
 846 : a7;
 847 : bd;
 848 : d6;
 849 : 04;
 84A : 85;
 84B : 36;
 84C : 29;
 84D : 07;
 84E : f0;
 84F : e5;
 850 : a8;
 851 : a9;
 852 : 00;
 853 : 9d;
 854 : d6;
 855 : 04;
 856 : bd;
 857 : 36;
 858 : 04;
 859 : 18;
 85A : 79;
 85B : 16;
 85C : ca;
 85D : 85;
 85E : 1f;
 85F : bd;
 860 : 86;
 861 : 04;
 862 : 18;
 863 : 79;
 864 : 11;
 865 : ca;
 866 : 85;
 867 : 20;
 868 : a0;
 869 : 4f;
 86A : 20;
 86B : e5;
 86C : cb;
 86D : d0;
 86E : 37;
 86F : a5;
 870 : 1f;
 871 : 99;
 872 : 36;
 873 : 04;
 874 : a5;
 875 : 20;
 876 : 99;
 877 : 86;
 878 : 04;
 879 : a9;
 87A : 01;
 87B : 99;
 87C : e6;
 87D : 03;
 87E : a5;
 87F : 36;
 880 : 29;
 881 : 07;
 882 : 99;
 883 : 26;
 884 : 05;
 885 : a5;
 886 : 36;
 887 : 18;
 888 : 69;
 889 : 10;
 88A : c5;
 88B : 73;
 88C : 90;
 88D : 10;
 88E : a9;
 88F : 00;
 890 : 99;
 891 : e6;
 892 : 03;
 893 : bd;
 894 : 26;
 895 : 05;
 896 : 09;
 897 : 80;
 898 : 9d;
 899 : 26;
 89A : 05;
 89B : 4c;
 89C : a1;
 89D : c8;
 89E : 99;
 89F : d6;
 8A0 : 04;
 8A1 : a9;
 8A2 : 00;
 8A3 : 9d;
 8A4 : d6;
 8A5 : 04;
 8A6 : ca;
 8A7 : 30;
 8A8 : 03;
 8A9 : 4c;
 8AA : 9f;
 8AB : c7;
 8AC : 60;
 8AD : a0;
 8AE : 09;
 8AF : b9;
 8B0 : 76;
 8B1 : 05;
 8B2 : d0;
 8B3 : 35;
 8B4 : a5;
 8B5 : 5b;
 8B6 : 99;
 8B7 : 76;
 8B8 : 05;
 8B9 : 99;
 8BA : a8;
 8BB : 05;
 8BC : a9;
 8BD : 08;
 8BE : 99;
 8BF : 8a;
 8C0 : 05;
 8C1 : 99;
 8C2 : 9e;
 8C3 : 05;
 8C4 : 20;
 8C5 : 70;
 8C6 : d6;
 8C7 : 29;
 8C8 : 03;
 8C9 : 18;
 8CA : 69;
 8CB : 01;
 8CC : 99;
 8CD : d0;
 8CE : 05;
 8CF : a5;
 8D0 : 1f;
 8D1 : 99;
 8D2 : 80;
 8D3 : 05;
 8D4 : a5;
 8D5 : 20;
 8D6 : 99;
 8D7 : 94;
 8D8 : 05;
 8D9 : a9;
 8DA : 00;
 8DB : 99;
 8DC : da;
 8DD : 05;
 8DE : 99;
 8DF : c6;
 8E0 : 05;
 8E1 : 99;
 8E2 : e4;
 8E3 : 05;
 8E4 : a9;
 8E5 : 1e;
 8E6 : 99;
 8E7 : b2;
 8E8 : 05;
 8E9 : 88;
 8EA : 10;
 8EB : c3;
 8EC : 60;
 8ED : a0;
 8EE : 09;
 8EF : b9;
 8F0 : 76;
 8F1 : 05;
 8F2 : d0;
 8F3 : 41;
 8F4 : a5;
 8F5 : 7e;
 8F6 : 99;
 8F7 : 76;
 8F8 : 05;
 8F9 : 38;
 8FA : e9;
 8FB : 01;
 8FC : 0a;
 8FD : 0a;
 8FE : 99;
 8FF : a8;
 900 : 05;
 901 : a9;
 902 : 08;
 903 : 99;
 904 : 8a;
 905 : 05;
 906 : 99;
 907 : 9e;
 908 : 05;
 909 : 20;
 90A : 70;
 90B : d6;
 90C : 29;
 90D : 03;
 90E : 18;
 90F : 69;
 910 : 01;
 911 : 99;
 912 : d0;
 913 : 05;
 914 : 84;
 915 : 5a;
 916 : 20;
 917 : cf;
 918 : ca;
 919 : a4;
 91A : 5a;
 91B : a5;
 91C : 24;
 91D : 99;
 91E : 80;
 91F : 05;
 920 : a5;
 921 : 25;
 922 : 99;
 923 : 94;
 924 : 05;
 925 : a9;
 926 : 00;
 927 : 99;
 928 : da;
 929 : 05;
 92A : 99;
 92B : c6;
 92C : 05;
 92D : 99;
 92E : e4;
 92F : 05;
 930 : a9;
 931 : 1e;
 932 : 99;
 933 : b2;
 934 : 05;
 935 : 88;
 936 : 10;
 937 : b7;
 938 : 60;
 939 : a2;
 93A : 09;
 93B : bd;
 93C : a0;
 93D : 03;
 93E : f0;
 93F : 26;
 940 : bc;
 941 : b4;
 942 : 03;
 943 : b9;
 944 : a3;
 945 : e2;
 946 : 85;
 947 : 34;
 948 : b9;
 949 : b0;
 94A : e2;
 94B : 85;
 94C : 35;
 94D : 84;
 94E : 20;
 94F : bc;
 950 : aa;
 951 : 03;
 952 : 84;
 953 : 1f;
 954 : a9;
 955 : 00;
 956 : 20;
 957 : b6;
 958 : c9;
 959 : 20;
 95A : f6;
 95B : cb;
 95C : a9;
 95D : 00;
 95E : 91;
 95F : 34;
 960 : a9;
 961 : 00;
 962 : 9d;
 963 : a0;
 964 : 03;
 965 : 60;
 966 : ca;
 967 : 10;
 968 : d2;
 969 : 60;
 96A : a2;
 96B : 09;
 96C : bd;
 96D : a0;
 96E : 03;
 96F : f0;
 970 : 41;
 971 : bc;
 972 : b4;
 973 : 03;
 974 : b9;
 975 : a3;
 976 : e2;
 977 : 85;
 978 : 34;
 979 : b9;
 97A : b0;
 97B : e2;
 97C : 85;
 97D : 35;
 97E : 84;
 97F : 20;
 980 : bc;
 981 : aa;
 982 : 03;
 983 : 84;
 984 : 1f;
 985 : b1;
 986 : 34;
 987 : c9;
 988 : 03;
 989 : d0;
 98A : 0e;
 98B : fe;
 98C : d2;
 98D : 03;
 98E : a5;
 98F : 77;
 990 : d0;
 991 : 20;
 992 : de;
 993 : be;
 994 : 03;
 995 : d0;
 996 : 1b;
 997 : a9;
 998 : 00;
 999 : 29;
 99A : 07;
 99B : 20;
 99C : b6;
 99D : c9;
 99E : a5;
 99F : a5;
 9A0 : c9;
 9A1 : ff;
 9A2 : f0;
 9A3 : 02;
 9A4 : e6;
 9A5 : a5;
 9A6 : 20;
 9A7 : f6;
 9A8 : cb;
 9A9 : a9;
 9AA : 00;
 9AB : 91;
 9AC : 34;
 9AD : a9;
 9AE : 00;
 9AF : 9d;
 9B0 : a0;
 9B1 : 03;
 9B2 : ca;
 9B3 : 10;
 9B4 : b7;
 9B5 : 60;
 9B6 : 86;
 9B7 : 2f;
 9B8 : 84;
 9B9 : 30;
 9BA : a8;
 9BB : b9;
 9BC : de;
 9BD : c9;
 9BE : 85;
 9BF : 2e;
 9C0 : a9;
 9C1 : 01;
 9C2 : 20;
 9C3 : e3;
 9C4 : c9;
 9C5 : a9;
 9C6 : 02;
 9C7 : 20;
 9C8 : e3;
 9C9 : c9;
 9CA : a9;
 9CB : 03;
 9CC : 20;
 9CD : e3;
 9CE : c9;
 9CF : a9;
 9D0 : 04;
 9D1 : 20;
 9D2 : e3;
 9D3 : c9;
 9D4 : a9;
 9D5 : 00;
 9D6 : 20;
 9D7 : e3;
 9D8 : c9;
 9D9 : a6;
 9DA : 2f;
 9DB : a4;
 9DC : 30;
 9DD : 60;
 9DE : ff;
 9DF : 03;
 9E0 : 04;
 9E1 : 01;
 9E2 : 02;
 9E3 : c5;
 9E4 : 2e;
 9E5 : f0;
 9E6 : ce;
 9E7 : 85;
 9E8 : 31;
 9E9 : aa;
 9EA : a0;
 9EB : 4f;
 9EC : 20;
 9ED : e5;
 9EE : cb;
 9EF : 30;
 9F0 : 1f;
 9F1 : a5;
 9F2 : 20;
 9F3 : 18;
 9F4 : 7d;
 9F5 : 11;
 9F6 : ca;
 9F7 : 99;
 9F8 : 86;
 9F9 : 04;
 9FA : a5;
 9FB : 1f;
 9FC : 18;
 9FD : 7d;
 9FE : 16;
 9FF : ca;
 A00 : 99;
 A01 : 36;
 A02 : 04;
 A03 : a5;
 A04 : 31;
 A05 : 99;
 A06 : d6;
 A07 : 04;
 A08 : 99;
 A09 : 26;
 A0A : 05;
 A0B : a9;
 A0C : 01;
 A0D : 99;
 A0E : e6;
 A0F : 03;
 A10 : 60;
 A11 : 00;
 A12 : 00;
 A13 : ff;
 A14 : 00;
 A15 : 01;
 A16 : 00;
 A17 : 01;
 A18 : 00;
 A19 : ff;
 A1A : 00;
 A1B : a2;
 A1C : 09;
 A1D : bd;
 A1E : a0;
 A1F : 03;
 A20 : f0;
 A21 : 21;
 A22 : bd;
 A23 : aa;
 A24 : 03;
 A25 : 85;
 A26 : 1f;
 A27 : bd;
 A28 : b4;
 A29 : 03;
 A2A : 85;
 A2B : 20;
 A2C : bd;
 A2D : d2;
 A2E : 03;
 A2F : 29;
 A30 : 0f;
 A31 : d0;
 A32 : 10;
 A33 : bd;
 A34 : d2;
 A35 : 03;
 A36 : 4a;
 A37 : 4a;
 A38 : 4a;
 A39 : 4a;
 A3A : 29;
 A3B : 03;
 A3C : a8;
 A3D : b9;
 A3E : 47;
 A3F : ca;
 A40 : 20;
 A41 : fc;
 A42 : d8;
 A43 : ca;
 A44 : 10;
 A45 : d7;
 A46 : 60;
 A47 : 09;
 A48 : 0a;
 A49 : 09;
 A4A : 08;
 A4B : 20;
 A4C : 72;
 A4D : ca;
 A4E : 20;
 A4F : cf;
 A50 : ca;
 A51 : a9;
 A52 : 04;
 A53 : 91;
 A54 : 34;
 A55 : 20;
 A56 : cf;
 A57 : ca;
 A58 : a9;
 A59 : 05;
 A5A : 91;
 A5B : 34;
 A5C : a9;
 A5D : 32;
 A5E : 18;
 A5F : 65;
 A60 : 58;
 A61 : 18;
 A62 : 65;
 A63 : 58;
 A64 : 85;
 A65 : 1f;
 A66 : 20;
 A67 : cf;
 A68 : ca;
 A69 : a9;
 A6A : 02;
 A6B : 91;
 A6C : 34;
 A6D : c6;
 A6E : 1f;
 A6F : d0;
 A70 : f5;
 A71 : 60;
 A72 : a9;
 A73 : 00;
 A74 : 85;
 A75 : 34;
 A76 : a9;
 A77 : 02;
 A78 : 85;
 A79 : 35;
 A7A : a0;
 A7B : 00;
 A7C : a2;
 A7D : 00;
 A7E : 20;
 A7F : ba;
 A80 : ca;
 A81 : a2;
 A82 : 20;
 A83 : 20;
 A84 : ba;
 A85 : ca;
 A86 : a2;
 A87 : 40;
 A88 : 20;
 A89 : ba;
 A8A : ca;
 A8B : a2;
 A8C : 20;
 A8D : 20;
 A8E : ba;
 A8F : ca;
 A90 : a2;
 A91 : 40;
 A92 : 20;
 A93 : ba;
 A94 : ca;
 A95 : a2;
 A96 : 20;
 A97 : 20;
 A98 : ba;
 A99 : ca;
 A9A : a2;
 A9B : 40;
 A9C : 20;
 A9D : ba;
 A9E : ca;
 A9F : a2;
 AA0 : 20;
 AA1 : 20;
 AA2 : ba;
 AA3 : ca;
 AA4 : a2;
 AA5 : 40;
 AA6 : 20;
 AA7 : ba;
 AA8 : ca;
 AA9 : a2;
 AAA : 20;
 AAB : 20;
 AAC : ba;
 AAD : ca;
 AAE : a2;
 AAF : 40;
 AB0 : 20;
 AB1 : ba;
 AB2 : ca;
 AB3 : a2;
 AB4 : 20;
 AB5 : 20;
 AB6 : ba;
 AB7 : ca;
 AB8 : a2;
 AB9 : 00;
 ABA : a9;
 ABB : 20;
 ABC : 85;
 ABD : 24;
 ABE : bd;
 ABF : 43;
 AC0 : e2;
 AC1 : 91;
 AC2 : 34;
 AC3 : e6;
 AC4 : 34;
 AC5 : d0;
 AC6 : 02;
 AC7 : e6;
 AC8 : 35;
 AC9 : e8;
 ACA : c6;
 ACB : 24;
 ACC : d0;
 ACD : f0;
 ACE : 60;
 ACF : 20;
 AD0 : 70;
 AD1 : d6;
 AD2 : 6a;
 AD3 : 6a;
 AD4 : 29;
 AD5 : 1f;
 AD6 : f0;
 AD7 : f7;
 AD8 : 85;
 AD9 : 24;
 ADA : 20;
 ADB : 70;
 ADC : d6;
 ADD : 6a;
 ADE : 6a;
 ADF : 6a;
 AE0 : 29;
 AE1 : 0f;
 AE2 : f0;
 AE3 : f6;
 AE4 : c9;
 AE5 : 0c;
 AE6 : b0;
 AE7 : f2;
 AE8 : 85;
 AE9 : 25;
 AEA : a8;
 AEB : b9;
 AEC : a3;
 AED : e2;
 AEE : 85;
 AEF : 34;
 AF0 : b9;
 AF1 : b0;
 AF2 : e2;
 AF3 : 85;
 AF4 : 35;
 AF5 : a4;
 AF6 : 24;
 AF7 : b1;
 AF8 : 34;
 AF9 : d0;
 AFA : d4;
 AFB : c0;
 AFC : 03;
 AFD : b0;
 AFE : 06;
 AFF : a5;
 B00 : 25;
 B01 : c9;
 B02 : 03;
 B03 : 90;
 B04 : ca;
 B05 : 60;
 B06 : 20;
 B07 : 57;
 B08 : c2;
 B09 : a9;
 B0A : 00;
 B0B : 85;
 B0C : 20;
 B0D : a9;
 B0E : 00;
 B0F : 85;
 B10 : 26;
 B11 : a9;
 B12 : 02;
 B13 : 85;
 B14 : 27;
 B15 : a0;
 B16 : 00;
 B17 : a9;
 B18 : 00;
 B19 : 85;
 B1A : 1f;
 B1B : a5;
 B1C : 94;
 B1D : f0;
 B1E : 05;
 B1F : b1;
 B20 : 26;
 B21 : 4c;
 B22 : 30;
 B23 : cb;
 B24 : b1;
 B25 : 26;
 B26 : c9;
 B27 : 04;
 B28 : f0;
 B29 : 04;
 B2A : c9;
 B2B : 05;
 B2C : d0;
 B2D : 02;
 B2E : a9;
 B2F : 02;
 B30 : 20;
 B31 : 4e;
 B32 : cb;
 B33 : c8;
 B34 : d0;
 B35 : 02;
 B36 : e6;
 B37 : 27;
 B38 : e6;
 B39 : 1f;
 B3A : a5;
 B3B : 1f;
 B3C : 29;
 B3D : 20;
 B3E : f0;
 B3F : db;
 B40 : e6;
 B41 : 20;
 B42 : a5;
 B43 : 20;
 B44 : c9;
 B45 : 0d;
 B46 : d0;
 B47 : cf;
 B48 : 20;
 B49 : c7;
 B4A : dd;
 B4B : 4c;
 B4C : 96;
 B4D : c2;
 B4E : 84;
 B4F : 25;
 B50 : 20;
 B51 : 24;
 B52 : d9;
 B53 : a2;
 B54 : 00;
 B55 : b5;
 B56 : 17;
 B57 : 9d;
 B58 : 00;
 B59 : 06;
 B5A : e8;
 B5B : e0;
 B5C : 08;
 B5D : d0;
 B5E : f6;
 B5F : 20;
 B60 : 65;
 B61 : cb;
 B62 : a4;
 B63 : 25;
 B64 : 60;
 B65 : ad;
 B66 : 02;
 B67 : 06;
 B68 : 0d;
 B69 : 00;
 B6A : 06;
 B6B : 48;
 B6C : 8d;
 B6D : 06;
 B6E : 20;
 B6F : ae;
 B70 : 01;
 B71 : 06;
 B72 : 8e;
 B73 : 06;
 B74 : 20;
 B75 : ae;
 B76 : 03;
 B77 : 06;
 B78 : bd;
 B79 : c6;
 B7A : d9;
 B7B : 8d;
 B7C : 07;
 B7D : 20;
 B7E : bd;
 B7F : c7;
 B80 : d9;
 B81 : 8d;
 B82 : 07;
 B83 : 20;
 B84 : 68;
 B85 : 8d;
 B86 : 06;
 B87 : 20;
 B88 : ad;
 B89 : 01;
 B8A : 06;
 B8B : 18;
 B8C : 69;
 B8D : 20;
 B8E : 8d;
 B8F : 06;
 B90 : 20;
 B91 : bd;
 B92 : c8;
 B93 : d9;
 B94 : 8d;
 B95 : 07;
 B96 : 20;
 B97 : bd;
 B98 : c9;
 B99 : d9;
 B9A : 8d;
 B9B : 07;
 B9C : 20;
 B9D : a9;
 B9E : 23;
 B9F : 0d;
 BA0 : 00;
 BA1 : 06;
 BA2 : 48;
 BA3 : 8d;
 BA4 : 06;
 BA5 : 20;
 BA6 : ad;
 BA7 : 04;
 BA8 : 06;
 BA9 : 8d;
 BAA : 06;
 BAB : 20;
 BAC : aa;
 BAD : ad;
 BAE : 07;
 BAF : 20;
 BB0 : ad;
 BB1 : 07;
 BB2 : 20;
 BB3 : 2d;
 BB4 : 06;
 BB5 : 06;
 BB6 : 0d;
 BB7 : 07;
 BB8 : 06;
 BB9 : a8;
 BBA : 68;
 BBB : 8d;
 BBC : 06;
 BBD : 20;
 BBE : 8e;
 BBF : 06;
 BC0 : 20;
 BC1 : 8c;
 BC2 : 07;
 BC3 : 20;
 BC4 : 60;
 BC5 : a2;
 BC6 : 09;
 BC7 : a9;
 BC8 : 00;
 BC9 : 9d;
 BCA : a0;
 BCB : 03;
 BCC : ca;
 BCD : 10;
 BCE : fa;
 BCF : a2;
 BD0 : 4f;
 BD1 : 9d;
 BD2 : e6;
 BD3 : 03;
 BD4 : ca;
 BD5 : 10;
 BD6 : fa;
 BD7 : a9;
 BD8 : 00;
 BD9 : a2;
 BDA : 09;
 BDB : 9d;
 BDC : 76;
 BDD : 05;
 BDE : ca;
 BDF : 10;
 BE0 : fa;
 BE1 : 60;
 BE2 : 88;
 BE3 : 30;
 BE4 : 05;
 BE5 : b9;
 BE6 : e6;
 BE7 : 03;
 BE8 : d0;
 BE9 : f8;
 BEA : 60;
 BEB : b9;
 BEC : a3;
 BED : e2;
 BEE : 85;
 BEF : 34;
 BF0 : b9;
 BF1 : b0;
 BF2 : e2;
 BF3 : 85;
 BF4 : 35;
 BF5 : 60;
 BF6 : a9;
 BF7 : 01;
 BF8 : 85;
 BF9 : 38;
 BFA : 60;
 BFB : a5;
 BFC : 0b;
 BFD : d0;
 BFE : fc;
 BFF : a9;
 C00 : 01;
 C01 : 85;
 C02 : 0b;
 C03 : 60;
 C04 : 02;
 C05 : 01;
 C06 : 05;
 C07 : 03;
 C08 : 01;
 C09 : 01;
 C0A : 02;
 C0B : 05;
 C0C : 06;
 C0D : 04;
 C0E : 01;
 C0F : 01;
 C10 : 05;
 C11 : 06;
 C12 : 02;
 C13 : 04;
 C14 : 01;
 C15 : 06;
 C16 : 01;
 C17 : 05;
 C18 : 06;
 C19 : 05;
 C1A : 01;
 C1B : 05;
 C1C : 06;
 C1D : 08;
 C1E : 02;
 C1F : 01;
 C20 : 05;
 C21 : 07;
 C22 : 04;
 C23 : 01;
 C24 : 05;
 C25 : 08;
 C26 : 06;
 C27 : 07;
 C28 : 05;
 C29 : 02;
 C2A : 04;
 C2B : 08;
 C2C : 05;
 C2D : 04;
 C2E : 06;
 C2F : 05;
 C30 : 08;
 C31 : 04;
 C32 : 06;
 C33 : 05;
 C34 : 07;
 C35 : 08;
 C36 : a5;
 C37 : 7d;
 C38 : d0;
 C39 : 12;
 C3A : a5;
 C3B : 7a;
 C3C : f0;
 C3D : 0e;
 C3E : a5;
 C3F : 33;
 C40 : 29;
 C41 : 07;
 C42 : d0;
 C43 : 08;
 C44 : c6;
 C45 : 7a;
 C46 : d0;
 C47 : 04;
 C48 : a9;
 C49 : 03;
 C4A : 85;
 C4B : b5;
 C4C : a5;
 C4D : 5c;
 C4E : f0;
 C4F : 13;
 C50 : a5;
 C51 : 33;
 C52 : 29;
 C53 : 0f;
 C54 : d0;
 C55 : 0c;
 C56 : e6;
 C57 : 2c;
 C58 : a5;
 C59 : 2c;
 C5A : c9;
 C5B : 14;
 C5C : d0;
 C5D : 04;
 C5E : a9;
 C5F : 01;
 C60 : 85;
 C61 : 5d;
 C62 : 60;
 C63 : a5;
 C64 : 29;
 C65 : c9;
 C66 : 08;
 C67 : d0;
 C68 : 3b;
 C69 : a5;
 C6A : 2b;
 C6B : c9;
 C6C : 08;
 C6D : d0;
 C6E : 35;
 C6F : a4;
 C70 : 2a;
 C71 : 84;
 C72 : 20;
 C73 : b9;
 C74 : a3;
 C75 : e2;
 C76 : 85;
 C77 : 34;
 C78 : b9;
 C79 : b0;
 C7A : e2;
 C7B : 85;
 C7C : 35;
 C7D : a4;
 C7E : 28;
 C7F : 84;
 C80 : 1f;
 C81 : b1;
 C82 : 34;
 C83 : c9;
 C84 : 08;
 C85 : f0;
 C86 : 0e;
 C87 : c9;
 C88 : 06;
 C89 : d0;
 C8A : 19;
 C8B : a9;
 C8C : 00;
 C8D : 91;
 C8E : 34;
 C8F : 20;
 C90 : fc;
 C91 : d8;
 C92 : 4c;
 C93 : e9;
 C94 : ce;
 C95 : e6;
 C96 : 9f;
 C97 : a9;
 C98 : 00;
 C99 : 85;
 C9A : a6;
 C9B : a5;
 C9C : 9c;
 C9D : d0;
 C9E : 05;
 C9F : a9;
 CA0 : 01;
 CA1 : 85;
 CA2 : 5e;
 CA3 : 60;
 CA4 : a5;
 CA5 : 75;
 CA6 : d0;
 CA7 : 06;
 CA8 : a5;
 CA9 : 33;
 CAA : 29;
 CAB : 03;
 CAC : f0;
 CAD : f5;
 CAE : 20;
 CAF : 87;
 CB0 : cf;
 CB1 : d0;
 CB2 : 04;
 CB3 : 85;
 CB4 : a6;
 CB5 : 85;
 CB6 : 7b;
 CB7 : aa;
 CB8 : 29;
 CB9 : 01;
 CBA : f0;
 CBB : 03;
 CBC : 20;
 CBD : d4;
 CBE : cd;
 CBF : 8a;
 CC0 : 29;
 CC1 : 02;
 CC2 : f0;
 CC3 : 03;
 CC4 : 20;
 CC5 : a3;
 CC6 : cd;
 CC7 : 8a;
 CC8 : 29;
 CC9 : 08;
 CCA : f0;
 CCB : 03;
 CCC : 20;
 CCD : 70;
 CCE : cd;
 CCF : 8a;
 CD0 : 29;
 CD1 : 04;
 CD2 : f0;
 CD3 : 03;
 CD4 : 20;
 CD5 : 39;
 CD6 : cd;
 CD7 : 8a;
 CD8 : 29;
 CD9 : 80;
 CDA : d0;
 CDB : 13;
 CDC : a5;
 CDD : 77;
 CDE : f0;
 CDF : 0e;
 CE0 : a5;
 CE1 : 7b;
 CE2 : d0;
 CE3 : 0a;
 CE4 : 8a;
 CE5 : 29;
 CE6 : 40;
 CE7 : f0;
 CE8 : 05;
 CE9 : 85;
 CEA : 7b;
 CEB : 20;
 CEC : 39;
 CED : c9;
 CEE : 60;
 CEF : a4;
 CF0 : 2a;
 CF1 : b9;
 CF2 : a3;
 CF3 : e2;
 CF4 : 85;
 CF5 : 34;
 CF6 : b9;
 CF7 : b0;
 CF8 : e2;
 CF9 : 85;
 CFA : 35;
 CFB : a4;
 CFC : 28;
 CFD : b1;
 CFE : 34;
 CFF : d0;
 D00 : ed;
 D01 : 20;
 D02 : 10;
 D03 : ce;
 D04 : 20;
 D05 : 1f;
 D06 : ce;
 D07 : a6;
 D08 : 74;
 D09 : bd;
 D0A : a0;
 D0B : 03;
 D0C : f0;
 D0D : 04;
 D0E : ca;
 D0F : 10;
 D10 : f8;
 D11 : 60;
 D12 : a9;
 D13 : 03;
 D14 : 91;
 D15 : 34;
 D16 : a5;
 D17 : 28;
 D18 : 9d;
 D19 : aa;
 D1A : 03;
 D1B : a5;
 D1C : 2a;
 D1D : 9d;
 D1E : b4;
 D1F : 03;
 D20 : a9;
 D21 : 00;
 D22 : 9d;
 D23 : d2;
 D24 : 03;
 D25 : a9;
 D26 : 00;
 D27 : 9d;
 D28 : c8;
 D29 : 03;
 D2A : a9;
 D2B : a0;
 D2C : 9d;
 D2D : be;
 D2E : 03;
 D2F : a9;
 D30 : 01;
 D31 : 9d;
 D32 : a0;
 D33 : 03;
 D34 : a9;
 D35 : 03;
 D36 : 85;
 D37 : df;
 D38 : 60;
 D39 : a5;
 D3A : 2b;
 D3B : c9;
 D3C : 08;
 D3D : b0;
 D3E : 05;
 D3F : e6;
 D40 : 2b;
 D41 : 4c;
 D42 : 69;
 D43 : cd;
 D44 : a4;
 D45 : 2a;
 D46 : c8;
 D47 : b9;
 D48 : a3;
 D49 : e2;
 D4A : 85;
 D4B : 34;
 D4C : b9;
 D4D : b0;
 D4E : e2;
 D4F : 85;
 D50 : 35;
 D51 : a4;
 D52 : 28;
 D53 : 20;
 D54 : 60;
 D55 : cf;
 D56 : d0;
 D57 : 11;
 D58 : 20;
 D59 : 10;
 D5A : ce;
 D5B : e6;
 D5C : 2b;
 D5D : a5;
 D5E : 2b;
 D5F : c9;
 D60 : 10;
 D61 : d0;
 D62 : 06;
 D63 : a9;
 D64 : 00;
 D65 : 85;
 D66 : 2b;
 D67 : e6;
 D68 : 2a;
 D69 : a9;
 D6A : 04;
 D6B : a0;
 D6C : 07;
 D6D : 4c;
 D6E : 2e;
 D6F : ce;
 D70 : a5;
 D71 : 2b;
 D72 : c9;
 D73 : 09;
 D74 : 90;
 D75 : 05;
 D76 : c6;
 D77 : 2b;
 D78 : 4c;
 D79 : 9c;
 D7A : cd;
 D7B : a4;
 D7C : 2a;
 D7D : 88;
 D7E : b9;
 D7F : a3;
 D80 : e2;
 D81 : 85;
 D82 : 34;
 D83 : b9;
 D84 : b0;
 D85 : e2;
 D86 : 85;
 D87 : 35;
 D88 : a4;
 D89 : 28;
 D8A : 20;
 D8B : 60;
 D8C : cf;
 D8D : d0;
 D8E : 0d;
 D8F : 20;
 D90 : 10;
 D91 : ce;
 D92 : c6;
 D93 : 2b;
 D94 : 10;
 D95 : 06;
 D96 : a9;
 D97 : 0f;
 D98 : 85;
 D99 : 2b;
 D9A : c6;
 D9B : 2a;
 D9C : a9;
 D9D : 08;
 D9E : a0;
 D9F : 0b;
 DA0 : 4c;
 DA1 : 2e;
 DA2 : ce;
 DA3 : a5;
 DA4 : 29;
 DA5 : c9;
 DA6 : 09;
 DA7 : 90;
 DA8 : 05;
 DA9 : c6;
 DAA : 29;
 DAB : 4c;
 DAC : cf;
 DAD : cd;
 DAE : a4;
 DAF : 2a;
 DB0 : b9;
 DB1 : a3;
 DB2 : e2;
 DB3 : 85;
 DB4 : 34;
 DB5 : b9;
 DB6 : b0;
 DB7 : e2;
 DB8 : 85;
 DB9 : 35;
 DBA : a4;
 DBB : 28;
 DBC : 88;
 DBD : 20;
 DBE : 60;
 DBF : cf;
 DC0 : d0;
 DC1 : 0d;
 DC2 : 20;
 DC3 : 1f;
 DC4 : ce;
 DC5 : c6;
 DC6 : 29;
 DC7 : 10;
 DC8 : 06;
 DC9 : a9;
 DCA : 0f;
 DCB : 85;
 DCC : 29;
 DCD : c6;
 DCE : 28;
 DCF : a9;
 DD0 : 00;
 DD1 : 4c;
 DD2 : 06;
 DD3 : ce;
 DD4 : a5;
 DD5 : 29;
 DD6 : c9;
 DD7 : 08;
 DD8 : b0;
 DD9 : 05;
 DDA : e6;
 DDB : 29;
 DDC : 4c;
 DDD : 04;
 DDE : ce;
 DDF : a4;
 DE0 : 2a;
 DE1 : b9;
 DE2 : a3;
 DE3 : e2;
 DE4 : 85;
 DE5 : 34;
 DE6 : b9;
 DE7 : b0;
 DE8 : e2;
 DE9 : 85;
 DEA : 35;
 DEB : a4;
 DEC : 28;
 DED : c8;
 DEE : 20;
 DEF : 60;
 DF0 : cf;
 DF1 : d0;
 DF2 : 11;
 DF3 : 20;
 DF4 : 1f;
 DF5 : ce;
 DF6 : e6;
 DF7 : 29;
 DF8 : a5;
 DF9 : 29;
 DFA : c9;
 DFB : 10;
 DFC : d0;
 DFD : 06;
 DFE : a9;
 DFF : 00;
 E00 : 85;
 E01 : 29;
 E02 : e6;
 E03 : 28;
 E04 : a9;
 E05 : 40;
 E06 : 85;
 E07 : 2d;
 E08 : a9;
 E09 : 00;
 E0A : a0;
 E0B : 03;
 E0C : 4c;
 E0D : 2e;
 E0E : ce;
 E0F : 60;
 E10 : a5;
 E11 : 29;
 E12 : c9;
 E13 : 08;
 E14 : 90;
 E15 : 05;
 E16 : f0;
 E17 : 06;
 E18 : c6;
 E19 : 29;
 E1A : 60;
 E1B : e6;
 E1C : 29;
 E1D : 60;
 E1E : 60;
 E1F : a5;
 E20 : 2b;
 E21 : c9;
 E22 : 08;
 E23 : 90;
 E24 : 05;
 E25 : f0;
 E26 : 06;
 E27 : c6;
 E28 : 2b;
 E29 : 60;
 E2A : e6;
 E2B : 2b;
 E2C : 60;
 E2D : 60;
 E2E : 48;
 E2F : a5;
 E30 : 33;
 E31 : 29;
 E32 : 03;
 E33 : c9;
 E34 : 02;
 E35 : d0;
 E36 : 22;
 E37 : a5;
 E38 : 33;
 E39 : 68;
 E3A : e6;
 E3B : a6;
 E3C : e6;
 E3D : 2c;
 E3E : c5;
 E3F : 2c;
 E40 : 90;
 E41 : 03;
 E42 : 85;
 E43 : 2c;
 E44 : 60;
 E45 : c4;
 E46 : 2c;
 E47 : 90;
 E48 : 01;
 E49 : 60;
 E4A : 85;
 E4B : 2c;
 E4C : c9;
 E4D : 04;
 E4E : 90;
 E4F : 04;
 E50 : a9;
 E51 : 02;
 E52 : d0;
 E53 : 02;
 E54 : a9;
 E55 : 01;
 E56 : 85;
 E57 : df;
 E58 : 60;
 E59 : 68;
 E5A : 60;
 E5B : a5;
 E5C : 2c;
 E5D : c9;
 E5E : 13;
 E5F : b0;
 E60 : f9;
 E61 : a5;
 E62 : 2d;
 E63 : 85;
 E64 : 3d;
 E65 : a0;
 E66 : 00;
 E67 : 84;
 E68 : 3c;
 E69 : a5;
 E6A : 28;
 E6B : c9;
 E6C : 08;
 E6D : 90;
 E6E : 11;
 E6F : a0;
 E70 : f0;
 E71 : c9;
 E72 : 17;
 E73 : b0;
 E74 : 0b;
 E75 : 0a;
 E76 : 0a;
 E77 : 0a;
 E78 : 0a;
 E79 : 18;
 E7A : 65;
 E7B : 29;
 E7C : 38;
 E7D : e9;
 E7E : 80;
 E7F : a8;
 E80 : 84;
 E81 : 0e;
 E82 : a5;
 E83 : 28;
 E84 : 0a;
 E85 : 0a;
 E86 : 0a;
 E87 : 0a;
 E88 : 18;
 E89 : 65;
 E8A : 29;
 E8B : 38;
 E8C : e9;
 E8D : 08;
 E8E : e5;
 E8F : 0e;
 E90 : 85;
 E91 : 3a;
 E92 : a5;
 E93 : 2a;
 E94 : 0a;
 E95 : 0a;
 E96 : 0a;
 E97 : 0a;
 E98 : 18;
 E99 : 65;
 E9A : 2b;
 E9B : 69;
 E9C : 17;
 E9D : 85;
 E9E : 3b;
 E9F : a6;
 EA0 : 2c;
 EA1 : bd;
 EA2 : d6;
 EA3 : ce;
 EA4 : 4c;
 EA5 : f2;
 EA6 : d5;
 EA7 : a5;
 EA8 : 2d;
 EA9 : 85;
 EAA : 3d;
 EAB : a0;
 EAC : 03;
 EAD : 84;
 EAE : 3c;
 EAF : a5;
 EB0 : 28;
 EB1 : 0a;
 EB2 : 0a;
 EB3 : 0a;
 EB4 : 0a;
 EB5 : 18;
 EB6 : 65;
 EB7 : 29;
 EB8 : 38;
 EB9 : e9;
 EBA : 08;
 EBB : 85;
 EBC : 3a;
 EBD : a5;
 EBE : 2a;
 EBF : 0a;
 EC0 : 0a;
 EC1 : 0a;
 EC2 : 0a;
 EC3 : 18;
 EC4 : 65;
 EC5 : 2b;
 EC6 : 69;
 EC7 : 17;
 EC8 : 85;
 EC9 : 3b;
 ECA : a6;
 ECB : 2c;
 ECC : bd;
 ECD : d2;
 ECE : ce;
 ECF : 4c;
 ED0 : f2;
 ED1 : d5;
 ED2 : 10;
 ED3 : 11;
 ED4 : 12;
 ED5 : 11;
 ED6 : 00;
 ED7 : 01;
 ED8 : 02;
 ED9 : 01;
 EDA : 03;
 EDB : 04;
 EDC : 05;
 EDD : 04;
 EDE : 06;
 EDF : 07;
 EE0 : 08;
 EE1 : 07;
 EE2 : 09;
 EE3 : 0a;
 EE4 : 0b;
 EE5 : 0c;
 EE6 : 0d;
 EE7 : 0e;
 EE8 : 0f;
 EE9 : a9;
 EEA : 04;
 EEB : 85;
 EEC : df;
 EED : a9;
 EEE : 0a;
 EEF : 20;
 EF0 : 83;
 EF1 : dd;
 EF2 : a6;
 EF3 : 5b;
 EF4 : ca;
 EF5 : f0;
 EF6 : 16;
 EF7 : ca;
 EF8 : f0;
 EF9 : 20;
 EFA : ca;
 EFB : f0;
 EFC : 2d;
 EFD : ca;
 EFE : f0;
 EFF : 33;
 F00 : ca;
 F01 : f0;
 F02 : 39;
 F03 : ca;
 F04 : f0;
 F05 : 3f;
 F06 : ca;
 F07 : f0;
 F08 : 45;
 F09 : ca;
 F0A : f0;
 F0B : 4b;
 F0C : 60;
 F0D : a5;
 F0E : 74;
 F0F : c9;
 F10 : 09;
 F11 : f0;
 F12 : 02;
 F13 : e6;
 F14 : 74;
 F15 : a9;
 F16 : 04;
 F17 : 85;
 F18 : b5;
 F19 : 60;
 F1A : a5;
 F1B : 73;
 F1C : c9;
 F1D : 50;
 F1E : f0;
 F1F : 05;
 F20 : 18;
 F21 : 69;
 F22 : 10;
 F23 : 85;
 F24 : 73;
 F25 : a9;
 F26 : 04;
 F27 : 85;
 F28 : b5;
 F29 : 60;
 F2A : a9;
 F2B : 01;
 F2C : 85;
 F2D : 75;
 F2E : a9;
 F2F : 04;
 F30 : 85;
 F31 : b5;
 F32 : 60;
 F33 : a9;
 F34 : 01;
 F35 : 85;
 F36 : 76;
 F37 : a9;
 F38 : 04;
 F39 : 85;
 F3A : b5;
 F3B : 60;
 F3C : a9;
 F3D : 01;
 F3E : 85;
 F3F : 77;
 F40 : a9;
 F41 : 04;
 F42 : 85;
 F43 : b5;
 F44 : 60;
 F45 : a9;
 F46 : 01;
 F47 : 85;
 F48 : 78;
 F49 : a9;
 F4A : 04;
 F4B : 85;
 F4C : b5;
 F4D : 60;
 F4E : a9;
 F4F : 01;
 F50 : 85;
 F51 : 79;
 F52 : a9;
 F53 : 05;
 F54 : 85;
 F55 : b5;
 F56 : 60;
 F57 : a9;
 F58 : ff;
 F59 : 85;
 F5A : 7a;
 F5B : a9;
 F5C : 05;
 F5D : 85;
 F5E : b5;
 F5F : 60;
 F60 : b1;
 F61 : 34;
 F62 : f0;
 F63 : 18;
 F64 : c9;
 F65 : 08;
 F66 : f0;
 F67 : 14;
 F68 : c9;
 F69 : 06;
 F6A : f0;
 F6B : 10;
 F6C : c9;
 F6D : 02;
 F6E : f0;
 F6F : 0d;
 F70 : c9;
 F71 : 04;
 F72 : f0;
 F73 : 09;
 F74 : c9;
 F75 : 05;
 F76 : f0;
 F77 : 05;
 F78 : c9;
 F79 : 03;
 F7A : f0;
 F7B : 06;
 F7C : 60;
 F7D : a5;
 F7E : 76;
 F7F : 49;
 F80 : 01;
 F81 : 60;
 F82 : a5;
 F83 : 78;
 F84 : 49;
 F85 : 01;
 F86 : 60;
 F87 : a5;
 F88 : 59;
 F89 : f0;
 F8A : 19;
 F8B : a5;
 F8C : af;
 F8D : c6;
 F8E : ae;
 F8F : d0;
 F90 : 12;
 F91 : 48;
 F92 : a0;
 F93 : 00;
 F94 : b1;
 F95 : ac;
 F96 : 85;
 F97 : ae;
 F98 : 20;
 F99 : a9;
 F9A : cf;
 F9B : b1;
 F9C : ac;
 F9D : 85;
 F9E : af;
 F9F : 20;
 FA0 : a9;
 FA1 : cf;
 FA2 : 68;
 FA3 : 60;
 FA4 : a5;
 FA5 : 12;
 FA6 : 05;
 FA7 : 13;
 FA8 : 60;
 FA9 : e6;
 FAA : ac;
 FAB : d0;
 FAC : 02;
 FAD : e6;
 FAE : ad;
 FAF : 60;
 FB0 : a9;
 FB1 : 00;
 FB2 : 85;
 FB3 : 9c;
 FB4 : a9;
 FB5 : c0;
 FB6 : 85;
 FB7 : 6b;
 FB8 : a2;
 FB9 : 09;
 FBA : bd;
 FBB : 76;
 FBC : 05;
 FBD : f0;
 FBE : 2a;
 FBF : c9;
 FC0 : 09;
 FC1 : b0;
 FC2 : 02;
 FC3 : e6;
 FC4 : 9c;
 FC5 : bc;
 FC6 : b2;
 FC7 : 05;
 FC8 : f0;
 FC9 : 05;
 FCA : de;
 FCB : b2;
 FCC : 05;
 FCD : d0;
 FCE : 1a;
 FCF : 0a;
 FD0 : a8;
 FD1 : 20;
 FD2 : c8;
 FD3 : d1;
 FD4 : a9;
 FD5 : cf;
 FD6 : 48;
 FD7 : a9;
 FD8 : e2;
 FD9 : 48;
 FDA : b9;
 FDB : 45;
 FDC : d2;
 FDD : 48;
 FDE : b9;
 FDF : 44;
 FE0 : d2;
 FE1 : 48;
 FE2 : 60;
 FE3 : 20;
 FE4 : 07;
 FE5 : d2;
 FE6 : 20;
 FE7 : 06;
 FE8 : d0;
 FE9 : ca;
 FEA : 10;
 FEB : ce;
 FEC : 60;
 FED : a5;
 FEE : 9d;
 FEF : 18;
 FF0 : 69;
 FF1 : 2c;
 FF2 : 85;
 FF3 : 46;
 FF4 : a5;
 FF5 : aa;
 FF6 : 85;
 FF7 : 42;
 FF8 : a5;
 FF9 : ab;
 FFA : 85;
 FFB : 44;
 FFC : a9;
 FFD : 08;
 FFE : 85;
 FFF : 43;
1000 : 85;
1001 : 45;
1002 : a9;
1003 : 00;
1004 : f0;
1005 : 0a;
1006 : a5;
1007 : 41;
1008 : f0;
1009 : e2;
100A : c9;
100B : 0b;
100C : f0;
100D : 7e;
100E : a5;
100F : 48;
1010 : 85;
1011 : 3d;
1012 : a0;
1013 : 00;
1014 : 84;
1015 : 50;
1016 : a5;
1017 : 42;
1018 : 0a;
1019 : 0a;
101A : 0a;
101B : 0a;
101C : 26;
101D : 50;
101E : 18;
101F : 65;
1020 : 43;
1021 : 85;
1022 : 4f;
1023 : a5;
1024 : 50;
1025 : 69;
1026 : 00;
1027 : 85;
1028 : 50;
1029 : a5;
102A : 4f;
102B : 38;
102C : e9;
102D : 08;
102E : 85;
102F : 4f;
1030 : a5;
1031 : 50;
1032 : e9;
1033 : 00;
1034 : 85;
1035 : 50;
1036 : a5;
1037 : 4f;
1038 : 38;
1039 : e5;
103A : 0e;
103B : 85;
103C : 4f;
103D : a5;
103E : 50;
103F : e9;
1040 : 00;
1041 : d0;
1042 : 48;
1043 : a5;
1044 : 4f;
1045 : c9;
1046 : f8;
1047 : b0;
1048 : 42;
1049 : 85;
104A : 3a;
104B : a5;
104C : 44;
104D : 0a;
104E : 0a;
104F : 0a;
1050 : 0a;
1051 : 18;
1052 : 65;
1053 : 45;
1054 : 69;
1055 : 17;
1056 : 85;
1057 : 3b;
1058 : a4;
1059 : 46;
105A : b9;
105B : 86;
105C : d1;
105D : 85;
105E : 3c;
105F : b9;
1060 : 54;
1061 : d1;
1062 : 20;
1063 : f2;
1064 : d5;
1065 : a5;
1066 : 46;
1067 : c9;
1068 : 20;
1069 : b0;
106A : 20;
106B : a5;
106C : 5c;
106D : d0;
106E : 1c;
106F : a5;
1070 : 7a;
1071 : d0;
1072 : 18;
1073 : a5;
1074 : 42;
1075 : c5;
1076 : 28;
1077 : d0;
1078 : 12;
1079 : a5;
107A : 44;
107B : c5;
107C : 2a;
107D : d0;
107E : 0c;
107F : a9;
1080 : 05;
1081 : 85;
1082 : df;
1083 : a9;
1084 : 01;
1085 : 85;
1086 : 5c;
1087 : a9;
1088 : 0c;
1089 : 85;
108A : 2c;
108B : 60;
108C : 8a;
108D : 48;
108E : a9;
108F : 00;
1090 : 85;
1091 : 3d;
1092 : a0;
1093 : 00;
1094 : 84;
1095 : 50;
1096 : a5;
1097 : 42;
1098 : 0a;
1099 : 0a;
109A : 0a;
109B : 0a;
109C : 26;
109D : 50;
109E : 18;
109F : 65;
10A0 : 43;
10A1 : 85;
10A2 : 4f;
10A3 : a5;
10A4 : 50;
10A5 : 69;
10A6 : 00;
10A7 : 85;
10A8 : 50;
10A9 : a5;
10AA : 4f;
10AB : 38;
10AC : e9;
10AD : 08;
10AE : 85;
10AF : 4f;
10B0 : a5;
10B1 : 50;
10B2 : e9;
10B3 : 00;
10B4 : 85;
10B5 : 50;
10B6 : a5;
10B7 : 4f;
10B8 : 38;
10B9 : e5;
10BA : 0e;
10BB : 85;
10BC : 4f;
10BD : a5;
10BE : 50;
10BF : e9;
10C0 : 00;
10C1 : d0;
10C2 : 34;
10C3 : a5;
10C4 : 4f;
10C5 : c9;
10C6 : f8;
10C7 : b0;
10C8 : 2e;
10C9 : 85;
10CA : 3a;
10CB : a5;
10CC : 44;
10CD : 0a;
10CE : 0a;
10CF : 0a;
10D0 : 0a;
10D1 : 18;
10D2 : 65;
10D3 : 45;
10D4 : 69;
10D5 : 1b;
10D6 : 85;
10D7 : 3b;
10D8 : a5;
10D9 : 4b;
10DA : 18;
10DB : 65;
10DC : 4a;
10DD : c9;
10DE : 10;
10DF : 90;
10E0 : 02;
10E1 : a9;
10E2 : 10;
10E3 : 85;
10E4 : 24;
10E5 : 0a;
10E6 : 18;
10E7 : 65;
10E8 : 24;
10E9 : aa;
10EA : a4;
10EB : 6b;
10EC : 20;
10ED : fa;
10EE : d0;
10EF : 20;
10F0 : fa;
10F1 : d0;
10F2 : 20;
10F3 : fa;
10F4 : d0;
10F5 : 84;
10F6 : 6b;
10F7 : 68;
10F8 : aa;
10F9 : 60;
10FA : bd;
10FB : 21;
10FC : d1;
10FD : f0;
10FE : 1d;
10FF : 48;
1100 : a5;
1101 : 3b;
1102 : 99;
1103 : 00;
1104 : 07;
1105 : c8;
1106 : 68;
1107 : 99;
1108 : 00;
1109 : 07;
110A : c8;
110B : a9;
110C : 01;
110D : 99;
110E : 00;
110F : 07;
1110 : c8;
1111 : a5;
1112 : 3a;
1113 : 99;
1114 : 00;
1115 : 07;
1116 : c8;
1117 : 18;
1118 : 69;
1119 : 08;
111A : 85;
111B : 3a;
111C : e8;
111D : c8;
111E : 88;
111F : d0;
1120 : 02;
1121 : a0;
1122 : fc;
1123 : 60;
1124 : ec;
1125 : 46;
1126 : 00;
1127 : ed;
1128 : 46;
1129 : 00;
112A : ee;
112B : 46;
112C : 00;
112D : ef;
112E : 46;
112F : 00;
1130 : fc;
1131 : 46;
1132 : 00;
1133 : fd;
1134 : 46;
1135 : 00;
1136 : fe;
1137 : 46;
1138 : 00;
1139 : ff;
113A : 46;
113B : 00;
113C : ec;
113D : 46;
113E : 46;
113F : ed;
1140 : 46;
1141 : 46;
1142 : ee;
1143 : 46;
1144 : 46;
1145 : ef;
1146 : 46;
1147 : 46;
1148 : fc;
1149 : 46;
114A : 46;
114B : fd;
114C : 46;
114D : 46;
114E : fe;
114F : 46;
1150 : 46;
1151 : ff;
1152 : 46;
1153 : 46;
1154 : 18;
1155 : 19;
1156 : 1a;
1157 : 19;
1158 : 1c;
1159 : 1d;
115A : 1e;
115B : 1d;
115C : 20;
115D : 21;
115E : 22;
115F : 21;
1160 : 24;
1161 : 25;
1162 : 26;
1163 : 25;
1164 : 28;
1165 : 29;
1166 : 2a;
1167 : 29;
1168 : 2c;
1169 : 2d;
116A : 2e;
116B : 2d;
116C : 30;
116D : 31;
116E : 32;
116F : 31;
1170 : 34;
1171 : 35;
1172 : 36;
1173 : 35;
1174 : 1b;
1175 : 1f;
1176 : 23;
1177 : 27;
1178 : 2b;
1179 : 2f;
117A : 33;
117B : 37;
117C : 14;
117D : 15;
117E : 16;
117F : 17;
1180 : 38;
1181 : 39;
1182 : 3a;
1183 : 3b;
1184 : 3c;
1185 : 3d;
1186 : 01;
1187 : 01;
1188 : 01;
1189 : 01;
118A : 03;
118B : 03;
118C : 03;
118D : 03;
118E : 02;
118F : 02;
1190 : 02;
1191 : 02;
1192 : 01;
1193 : 01;
1194 : 01;
1195 : 01;
1196 : 03;
1197 : 03;
1198 : 03;
1199 : 03;
119A : 02;
119B : 02;
119C : 02;
119D : 02;
119E : 01;
119F : 01;
11A0 : 01;
11A1 : 01;
11A2 : 01;
11A3 : 02;
11A4 : 01;
11A5 : 02;
11A6 : 01;
11A7 : 03;
11A8 : 02;
11A9 : 01;
11AA : 03;
11AB : 02;
11AC : 01;
11AD : 01;
11AE : 01;
11AF : 01;
11B0 : 01;
11B1 : 01;
11B2 : 01;
11B3 : 00;
11B4 : 01;
11B5 : 02;
11B6 : 03;
11B7 : 01;
11B8 : 01;
11B9 : 02;
11BA : 04;
11BB : 08;
11BC : 0a;
11BD : 14;
11BE : 28;
11BF : 50;
11C0 : 64;
11C1 : c8;
11C2 : 02;
11C3 : 04;
11C4 : 05;
11C5 : 0a;
11C6 : 14;
11C7 : 28;
11C8 : 86;
11C9 : 4d;
11CA : bd;
11CB : 76;
11CC : 05;
11CD : 85;
11CE : 41;
11CF : bd;
11D0 : 80;
11D1 : 05;
11D2 : 85;
11D3 : 42;
11D4 : bd;
11D5 : 8a;
11D6 : 05;
11D7 : 85;
11D8 : 43;
11D9 : bd;
11DA : 94;
11DB : 05;
11DC : 85;
11DD : 44;
11DE : bd;
11DF : 9e;
11E0 : 05;
11E1 : 85;
11E2 : 45;
11E3 : bd;
11E4 : a8;
11E5 : 05;
11E6 : 85;
11E7 : 46;
11E8 : bd;
11E9 : b2;
11EA : 05;
11EB : 85;
11EC : 47;
11ED : bd;
11EE : bc;
11EF : 05;
11F0 : 85;
11F1 : 48;
11F2 : bd;
11F3 : c6;
11F4 : 05;
11F5 : 85;
11F6 : 49;
11F7 : bd;
11F8 : d0;
11F9 : 05;
11FA : 85;
11FB : 4a;
11FC : bd;
11FD : da;
11FE : 05;
11FF : 85;
1200 : 4b;
1201 : bd;
1202 : e4;
1203 : 05;
1204 : 85;
1205 : 4c;
1206 : 60;
1207 : a6;
1208 : 4d;
1209 : a5;
120A : 41;
120B : 9d;
120C : 76;
120D : 05;
120E : a5;
120F : 42;
1210 : 9d;
1211 : 80;
1212 : 05;
1213 : a5;
1214 : 43;
1215 : 9d;
1216 : 8a;
1217 : 05;
1218 : a5;
1219 : 44;
121A : 9d;
121B : 94;
121C : 05;
121D : a5;
121E : 45;
121F : 9d;
1220 : 9e;
1221 : 05;
1222 : a5;
1223 : 46;
1224 : 9d;
1225 : a8;
1226 : 05;
1227 : a5;
1228 : 47;
1229 : 9d;
122A : b2;
122B : 05;
122C : a5;
122D : 48;
122E : 9d;
122F : bc;
1230 : 05;
1231 : a5;
1232 : 49;
1233 : 9d;
1234 : c6;
1235 : 05;
1236 : a5;
1237 : 4a;
1238 : 9d;
1239 : d0;
123A : 05;
123B : a5;
123C : 4b;
123D : 9d;
123E : da;
123F : 05;
1240 : a5;
1241 : 4c;
1242 : 9d;
1243 : e4;
1244 : 05;
1245 : 60;
1246 : 20;
1247 : d3;
1248 : e7;
1249 : d2;
124A : c8;
124B : d2;
124C : 05;
124D : d3;
124E : b4;
124F : d2;
1250 : 19;
1251 : d3;
1252 : a0;
1253 : d3;
1254 : 8a;
1255 : d3;
1256 : a2;
1257 : d2;
1258 : 64;
1259 : d2;
125A : 5b;
125B : d2;
125C : c6;
125D : 49;
125E : d0;
125F : 42;
1260 : a9;
1261 : 00;
1262 : 85;
1263 : 41;
1264 : 60;
1265 : c6;
1266 : 49;
1267 : d0;
1268 : 39;
1269 : a9;
126A : 0a;
126B : 85;
126C : 49;
126D : e6;
126E : 46;
126F : a5;
1270 : 46;
1271 : c9;
1272 : 2c;
1273 : d0;
1274 : 2d;
1275 : a5;
1276 : 4b;
1277 : 18;
1278 : 65;
1279 : 4a;
127A : a8;
127B : c0;
127C : 0b;
127D : 90;
127E : 15;
127F : c0;
1280 : 10;
1281 : 90;
1282 : 02;
1283 : a0;
1284 : 10;
1285 : b9;
1286 : b7;
1287 : d1;
1288 : aa;
1289 : a9;
128A : c8;
128B : 20;
128C : 83;
128D : dd;
128E : ca;
128F : d0;
1290 : f8;
1291 : 4c;
1292 : 9a;
1293 : d2;
1294 : b9;
1295 : b7;
1296 : d1;
1297 : 20;
1298 : 83;
1299 : dd;
129A : a9;
129B : 0b;
129C : 85;
129D : 41;
129E : a9;
129F : 64;
12A0 : 85;
12A1 : 49;
12A2 : 60;
12A3 : c6;
12A4 : 49;
12A5 : d0;
12A6 : 0c;
12A7 : a9;
12A8 : 0a;
12A9 : 85;
12AA : 41;
12AB : a9;
12AC : 28;
12AD : 85;
12AE : 46;
12AF : a9;
12B0 : 14;
12B1 : 85;
12B2 : 49;
12B3 : 60;
12B4 : 60;
12B5 : a9;
12B6 : 10;
12B7 : a0;
12B8 : 13;
12B9 : 20;
12BA : da;
12BB : d5;
12BC : 20;
12BD : 7e;
12BE : d3;
12BF : a5;
12C0 : 33;
12C1 : 29;
12C2 : 03;
12C3 : d0;
12C4 : ef;
12C5 : 4c;
12C6 : 10;
12C7 : d3;
12C8 : 60;
12C9 : a9;
12CA : 08;
12CB : a0;
12CC : 0b;
12CD : 20;
12CE : da;
12CF : d5;
12D0 : 20;
12D1 : 7e;
12D2 : d3;
12D3 : a5;
12D4 : 33;
12D5 : 29;
12D6 : 03;
12D7 : f0;
12D8 : ef;
12D9 : c6;
12DA : 4c;
12DB : a5;
12DC : 4c;
12DD : c9;
12DE : 96;
12DF : b0;
12E0 : 03;
12E1 : 20;
12E2 : 26;
12E3 : d4;
12E4 : 4c;
12E5 : 3f;
12E6 : d3;
12E7 : 60;
12E8 : a9;
12E9 : 04;
12EA : a0;
12EB : 07;
12EC : 20;
12ED : da;
12EE : d5;
12EF : 20;
12F0 : 7e;
12F1 : d3;
12F2 : a5;
12F3 : 33;
12F4 : 29;
12F5 : 03;
12F6 : f0;
12F7 : ef;
12F8 : c6;
12F9 : 4c;
12FA : a5;
12FB : 4c;
12FC : c9;
12FD : 96;
12FE : b0;
12FF : 03;
1300 : 20;
1301 : 3d;
1302 : d4;
1303 : 4c;
1304 : 3f;
1305 : d3;
1306 : a9;
1307 : 0c;
1308 : a0;
1309 : 0f;
130A : 20;
130B : da;
130C : d5;
130D : 20;
130E : 7e;
130F : d3;
1310 : c6;
1311 : 4c;
1312 : a5;
1313 : 4c;
1314 : c9;
1315 : c8;
1316 : 4c;
1317 : 37;
1318 : d3;
1319 : 60;
131A : a9;
131B : 14;
131C : a0;
131D : 17;
131E : 4c;
131F : 25;
1320 : d3;
1321 : a9;
1322 : 00;
1323 : a0;
1324 : 03;
1325 : 20;
1326 : da;
1327 : d5;
1328 : 20;
1329 : 7e;
132A : d3;
132B : a5;
132C : 33;
132D : 29;
132E : 01;
132F : f0;
1330 : e8;
1331 : c6;
1332 : 4c;
1333 : a5;
1334 : 4c;
1335 : c9;
1336 : 14;
1337 : b0;
1338 : 06;
1339 : 20;
133A : 3d;
133B : d4;
133C : 20;
133D : 26;
133E : d4;
133F : a5;
1340 : 49;
1341 : f0;
1342 : 22;
1343 : c6;
1344 : 49;
1345 : a5;
1346 : 4a;
1347 : 20;
1348 : de;
1349 : d4;
134A : f0;
134B : 18;
134C : c9;
134D : 03;
134E : 90;
134F : 10;
1350 : a4;
1351 : 4a;
1352 : b9;
1353 : 12;
1354 : d4;
1355 : 85;
1356 : 4a;
1357 : a9;
1358 : 00;
1359 : 85;
135A : 4c;
135B : a9;
135C : 60;
135D : 85;
135E : 49;
135F : 60;
1360 : a9;
1361 : 00;
1362 : 85;
1363 : 49;
1364 : 60;
1365 : 20;
1366 : 70;
1367 : d6;
1368 : 48;
1369 : 29;
136A : 18;
136B : 0a;
136C : 0a;
136D : 18;
136E : 69;
136F : 20;
1370 : 85;
1371 : 49;
1372 : 68;
1373 : 2a;
1374 : 2a;
1375 : 2a;
1376 : 29;
1377 : 03;
1378 : 18;
1379 : 69;
137A : 01;
137B : 85;
137C : 4a;
137D : 60;
137E : a0;
137F : 00;
1380 : a5;
1381 : 4a;
1382 : c9;
1383 : 03;
1384 : 90;
1385 : 02;
1386 : a0;
1387 : 40;
1388 : 84;
1389 : 48;
138A : 60;
138B : a9;
138C : 1c;
138D : a0;
138E : 1f;
138F : 20;
1390 : da;
1391 : d5;
1392 : a0;
1393 : 00;
1394 : a5;
1395 : 46;
1396 : c9;
1397 : 1d;
1398 : d0;
1399 : 02;
139A : a0;
139B : 40;
139C : 84;
139D : 48;
139E : 4c;
139F : ab;
13A0 : d3;
13A1 : a9;
13A2 : 18;
13A3 : a0;
13A4 : 1b;
13A5 : 20;
13A6 : da;
13A7 : d5;
13A8 : 20;
13A9 : 7e;
13AA : d3;
13AB : a5;
13AC : 4c;
13AD : f0;
13AE : 05;
13AF : c6;
13B0 : 4c;
13B1 : d0;
13B2 : 07;
13B3 : 60;
13B4 : 20;
13B5 : 3d;
13B6 : d4;
13B7 : 20;
13B8 : 26;
13B9 : d4;
13BA : a5;
13BB : 4a;
13BC : 0a;
13BD : 05;
13BE : 4b;
13BF : a8;
13C0 : b9;
13C1 : 17;
13C2 : d4;
13C3 : 85;
13C4 : 53;
13C5 : a8;
13C6 : b9;
13C7 : 21;
13C8 : d4;
13C9 : 85;
13CA : 52;
13CB : 20;
13CC : 54;
13CD : d4;
13CE : 25;
13CF : 52;
13D0 : f0;
13D1 : 0e;
13D2 : a5;
13D3 : 53;
13D4 : 85;
13D5 : 4a;
13D6 : a9;
13D7 : 01;
13D8 : 45;
13D9 : 4b;
13DA : 85;
13DB : 4b;
13DC : a9;
13DD : 00;
13DE : 85;
13DF : 49;
13E0 : e6;
13E1 : 49;
13E2 : a5;
13E3 : 49;
13E4 : c9;
13E5 : 1f;
13E6 : 90;
13E7 : 06;
13E8 : a9;
13E9 : 01;
13EA : 45;
13EB : 4b;
13EC : 85;
13ED : 4b;
13EE : a5;
13EF : 4a;
13F0 : 20;
13F1 : de;
13F2 : d4;
13F3 : f0;
13F4 : 10;
13F5 : c9;
13F6 : 03;
13F7 : b0;
13F8 : 0d;
13F9 : e6;
13FA : 4a;
13FB : a5;
13FC : 4a;
13FD : c9;
13FE : 05;
13FF : d0;
1400 : 04;
1401 : a9;
1402 : 01;
1403 : 85;
1404 : 4a;
1405 : 60;
1406 : a9;
1407 : 60;
1408 : 85;
1409 : 4c;
140A : a4;
140B : 4a;
140C : b9;
140D : 12;
140E : d4;
140F : 85;
1410 : 4a;
1411 : 60;
1412 : 00;
1413 : 03;
1414 : 04;
1415 : 01;
1416 : 02;
1417 : 01;
1418 : 04;
1419 : 04;
141A : 02;
141B : 01;
141C : 03;
141D : 02;
141E : 04;
141F : 03;
1420 : 01;
1421 : 00;
1422 : 01;
1423 : 02;
1424 : 04;
1425 : 08;
1426 : a5;
1427 : 5c;
1428 : d0;
1429 : 12;
142A : a5;
142B : 44;
142C : c5;
142D : 2a;
142E : d0;
142F : 0c;
1430 : a5;
1431 : 42;
1432 : c5;
1433 : 28;
1434 : a9;
1435 : 01;
1436 : 90;
1437 : 02;
1438 : a9;
1439 : 03;
143A : 85;
143B : 4a;
143C : 60;
143D : a5;
143E : 5c;
143F : d0;
1440 : fb;
1441 : a5;
1442 : 42;
1443 : c5;
1444 : 28;
1445 : d0;
1446 : 0c;
1447 : a5;
1448 : 44;
1449 : c5;
144A : 2a;
144B : a9;
144C : 04;
144D : 90;
144E : 02;
144F : a9;
1450 : 02;
1451 : 85;
1452 : 4a;
1453 : 60;
1454 : a9;
1455 : 00;
1456 : 85;
1457 : 51;
1458 : a5;
1459 : 43;
145A : c9;
145B : 08;
145C : d0;
145D : 04;
145E : a5;
145F : 45;
1460 : c9;
1461 : 08;
1462 : d0;
1463 : 59;
1464 : a4;
1465 : 44;
1466 : b9;
1467 : a3;
1468 : e2;
1469 : 85;
146A : 34;
146B : b9;
146C : b0;
146D : e2;
146E : 85;
146F : 35;
1470 : a4;
1471 : 42;
1472 : c8;
1473 : 20;
1474 : c0;
1475 : d4;
1476 : d0;
1477 : 04;
1478 : a9;
1479 : 01;
147A : 85;
147B : 51;
147C : 88;
147D : 88;
147E : 20;
147F : c0;
1480 : d4;
1481 : d0;
1482 : 06;
1483 : a9;
1484 : 04;
1485 : 05;
1486 : 51;
1487 : 85;
1488 : 51;
1489 : a4;
148A : 44;
148B : 88;
148C : b9;
148D : a3;
148E : e2;
148F : 85;
1490 : 34;
1491 : b9;
1492 : b0;
1493 : e2;
1494 : 85;
1495 : 35;
1496 : a4;
1497 : 42;
1498 : 20;
1499 : c0;
149A : d4;
149B : d0;
149C : 06;
149D : a9;
149E : 02;
149F : 05;
14A0 : 51;
14A1 : 85;
14A2 : 51;
14A3 : a4;
14A4 : 44;
14A5 : c8;
14A6 : b9;
14A7 : a3;
14A8 : e2;
14A9 : 85;
14AA : 34;
14AB : b9;
14AC : b0;
14AD : e2;
14AE : 85;
14AF : 35;
14B0 : a4;
14B1 : 42;
14B2 : 20;
14B3 : c0;
14B4 : d4;
14B5 : d0;
14B6 : 06;
14B7 : a9;
14B8 : 08;
14B9 : 05;
14BA : 51;
14BB : 85;
14BC : 51;
14BD : a5;
14BE : 51;
14BF : 60;
14C0 : b1;
14C1 : 34;
14C2 : f0;
14C3 : fb;
14C4 : c9;
14C5 : 08;
14C6 : f0;
14C7 : f7;
14C8 : c9;
14C9 : 06;
14CA : f0;
14CB : f3;
14CC : c9;
14CD : 02;
14CE : f0;
14CF : 01;
14D0 : 60;
14D1 : a5;
14D2 : 41;
14D3 : c9;
14D4 : 05;
14D5 : f0;
14D6 : e8;
14D7 : c9;
14D8 : 06;
14D9 : f0;
14DA : e4;
14DB : c9;
14DC : 08;
14DD : 60;
14DE : a2;
14DF : 00;
14E0 : 86;
14E1 : 4e;
14E2 : aa;
14E3 : c9;
14E4 : 01;
14E5 : d0;
14E6 : 03;
14E7 : 20;
14E8 : 8d;
14E9 : d5;
14EA : 8a;
14EB : c9;
14EC : 03;
14ED : d0;
14EE : 03;
14EF : 20;
14F0 : 62;
14F1 : d5;
14F2 : 8a;
14F3 : c9;
14F4 : 02;
14F5 : d0;
14F6 : 03;
14F7 : 20;
14F8 : 37;
14F9 : d5;
14FA : 8a;
14FB : c9;
14FC : 04;
14FD : d0;
14FE : 03;
14FF : 20;
1500 : 05;
1501 : d5;
1502 : a5;
1503 : 4e;
1504 : 60;
1505 : a5;
1506 : 45;
1507 : c9;
1508 : 08;
1509 : b0;
150A : 03;
150B : e6;
150C : 45;
150D : 60;
150E : a4;
150F : 44;
1510 : c8;
1511 : b9;
1512 : a3;
1513 : e2;
1514 : 85;
1515 : 34;
1516 : b9;
1517 : b0;
1518 : e2;
1519 : 85;
151A : 35;
151B : a4;
151C : 42;
151D : 20;
151E : c0;
151F : d4;
1520 : d0;
1521 : 12;
1522 : 20;
1523 : bc;
1524 : d5;
1525 : e6;
1526 : 45;
1527 : a5;
1528 : 45;
1529 : c9;
152A : 10;
152B : d0;
152C : 06;
152D : a9;
152E : 00;
152F : 85;
1530 : 45;
1531 : e6;
1532 : 44;
1533 : 60;
1534 : 85;
1535 : 4e;
1536 : 60;
1537 : a5;
1538 : 45;
1539 : c9;
153A : 09;
153B : 90;
153C : 03;
153D : c6;
153E : 45;
153F : 60;
1540 : a4;
1541 : 44;
1542 : 88;
1543 : b9;
1544 : a3;
1545 : e2;
1546 : 85;
1547 : 34;
1548 : b9;
1549 : b0;
154A : e2;
154B : 85;
154C : 35;
154D : a4;
154E : 42;
154F : 20;
1550 : c0;
1551 : d4;
1552 : d0;
1553 : e0;
1554 : 20;
1555 : bc;
1556 : d5;
1557 : c6;
1558 : 45;
1559 : 10;
155A : 06;
155B : a9;
155C : 0f;
155D : 85;
155E : 45;
155F : c6;
1560 : 44;
1561 : 60;
1562 : a5;
1563 : 43;
1564 : c9;
1565 : 09;
1566 : 90;
1567 : 03;
1568 : c6;
1569 : 43;
156A : 60;
156B : a4;
156C : 44;
156D : b9;
156E : a3;
156F : e2;
1570 : 85;
1571 : 34;
1572 : b9;
1573 : b0;
1574 : e2;
1575 : 85;
1576 : 35;
1577 : a4;
1578 : 42;
1579 : 88;
157A : 20;
157B : c0;
157C : d4;
157D : d0;
157E : b5;
157F : 20;
1580 : cb;
1581 : d5;
1582 : c6;
1583 : 43;
1584 : 10;
1585 : 06;
1586 : a9;
1587 : 0f;
1588 : 85;
1589 : 43;
158A : c6;
158B : 42;
158C : 60;
158D : a5;
158E : 43;
158F : c9;
1590 : 08;
1591 : b0;
1592 : 03;
1593 : e6;
1594 : 43;
1595 : 60;
1596 : a4;
1597 : 44;
1598 : b9;
1599 : a3;
159A : e2;
159B : 85;
159C : 34;
159D : b9;
159E : b0;
159F : e2;
15A0 : 85;
15A1 : 35;
15A2 : a4;
15A3 : 42;
15A4 : c8;
15A5 : 20;
15A6 : c0;
15A7 : d4;
15A8 : d0;
15A9 : 8a;
15AA : 20;
15AB : cb;
15AC : d5;
15AD : e6;
15AE : 43;
15AF : a5;
15B0 : 43;
15B1 : c9;
15B2 : 10;
15B3 : d0;
15B4 : 06;
15B5 : a9;
15B6 : 00;
15B7 : 85;
15B8 : 43;
15B9 : e6;
15BA : 42;
15BB : 60;
15BC : a5;
15BD : 43;
15BE : c9;
15BF : 08;
15C0 : 90;
15C1 : 05;
15C2 : f0;
15C3 : 06;
15C4 : c6;
15C5 : 43;
15C6 : 60;
15C7 : e6;
15C8 : 43;
15C9 : 60;
15CA : 60;
15CB : a5;
15CC : 45;
15CD : c9;
15CE : 08;
15CF : 90;
15D0 : 05;
15D1 : f0;
15D2 : 06;
15D3 : c6;
15D4 : 45;
15D5 : 60;
15D6 : e6;
15D7 : 45;
15D8 : 60;
15D9 : 60;
15DA : 48;
15DB : a5;
15DC : 33;
15DD : 29;
15DE : 07;
15DF : d0;
15E0 : 0f;
15E1 : 68;
15E2 : e6;
15E3 : 46;
15E4 : c5;
15E5 : 46;
15E6 : 90;
15E7 : 03;
15E8 : 85;
15E9 : 46;
15EA : 60;
15EB : c4;
15EC : 46;
15ED : 90;
15EE : f9;
15EF : 60;
15F0 : 68;
15F1 : 60;
15F2 : 86;
15F3 : 3f;
15F4 : 84;
15F5 : 40;
15F6 : 0a;
15F7 : 48;
15F8 : 29;
15F9 : 0e;
15FA : 85;
15FB : 3e;
15FC : 68;
15FD : 0a;
15FE : 29;
15FF : e0;
1600 : 05;
1601 : 3e;
1602 : 85;
1603 : 3e;
1604 : a5;
1605 : 39;
1606 : e6;
1607 : 39;
1608 : 18;
1609 : 65;
160A : db;
160B : c9;
160C : 0c;
160D : 90;
160E : 02;
160F : e9;
1610 : 0a;
1611 : 0a;
1612 : 0a;
1613 : 0a;
1614 : 0a;
1615 : a8;
1616 : a5;
1617 : 3d;
1618 : d0;
1619 : 08;
161A : 20;
161B : 31;
161C : d6;
161D : e6;
161E : 3e;
161F : 4c;
1620 : 29;
1621 : d6;
1622 : e6;
1623 : 3e;
1624 : 20;
1625 : 31;
1626 : d6;
1627 : c6;
1628 : 3e;
1629 : 20;
162A : 31;
162B : d6;
162C : a6;
162D : 3f;
162E : a4;
162F : 40;
1630 : 60;
1631 : a5;
1632 : 3b;
1633 : 99;
1634 : 00;
1635 : 07;
1636 : a5;
1637 : 3e;
1638 : 48;
1639 : 99;
163A : 01;
163B : 07;
163C : a5;
163D : 3c;
163E : 05;
163F : 3d;
1640 : 99;
1641 : 02;
1642 : 07;
1643 : a5;
1644 : 3a;
1645 : 99;
1646 : 03;
1647 : 07;
1648 : a5;
1649 : 3b;
164A : 18;
164B : 69;
164C : 08;
164D : 99;
164E : 04;
164F : 07;
1650 : 68;
1651 : 18;
1652 : 69;
1653 : 10;
1654 : 99;
1655 : 05;
1656 : 07;
1657 : a5;
1658 : 3c;
1659 : 05;
165A : 3d;
165B : 99;
165C : 06;
165D : 07;
165E : a5;
165F : 3a;
1660 : 99;
1661 : 07;
1662 : 07;
1663 : 98;
1664 : 18;
1665 : 69;
1666 : 08;
1667 : a8;
1668 : a5;
1669 : 3a;
166A : 18;
166B : 69;
166C : 08;
166D : 85;
166E : 3a;
166F : 60;
1670 : a5;
1671 : 54;
1672 : 2a;
1673 : 2a;
1674 : 49;
1675 : 41;
1676 : 2a;
1677 : 2a;
1678 : 49;
1679 : 93;
167A : 65;
167B : 55;
167C : 85;
167D : 54;
167E : 2a;
167F : 2a;
1680 : 49;
1681 : 12;
1682 : 2a;
1683 : 2a;
1684 : 65;
1685 : 56;
1686 : 85;
1687 : 55;
1688 : 65;
1689 : 54;
168A : e6;
168B : 56;
168C : d0;
168D : 09;
168E : 48;
168F : a5;
1690 : 57;
1691 : 18;
1692 : 69;
1693 : 1d;
1694 : 85;
1695 : 57;
1696 : 68;
1697 : 45;
1698 : 57;
1699 : 60;
169A : a5;
169B : 58;
169C : c9;
169D : 1a;
169E : 90;
169F : 08;
16A0 : e9;
16A1 : 19;
16A2 : a2;
16A3 : 02;
16A4 : a0;
16A5 : d8;
16A6 : d0;
16A7 : 04;
16A8 : a2;
16A9 : 08;
16AA : a0;
16AB : d7;
16AC : 86;
16AD : 97;
16AE : 84;
16AF : 98;
16B0 : 38;
16B1 : e9;
16B2 : 01;
16B3 : 0a;
16B4 : 85;
16B5 : 24;
16B6 : 0a;
16B7 : 0a;
16B8 : 18;
16B9 : 65;
16BA : 24;
16BB : a8;
16BC : a2;
16BD : 09;
16BE : b1;
16BF : 97;
16C0 : 9d;
16C1 : 76;
16C2 : 05;
16C3 : f0;
16C4 : 3e;
16C5 : 38;
16C6 : e9;
16C7 : 01;
16C8 : 0a;
16C9 : 0a;
16CA : 9d;
16CB : a8;
16CC : 05;
16CD : a9;
16CE : 08;
16CF : 9d;
16D0 : 8a;
16D1 : 05;
16D2 : 9d;
16D3 : 9e;
16D4 : 05;
16D5 : 20;
16D6 : 70;
16D7 : d6;
16D8 : 29;
16D9 : 03;
16DA : 18;
16DB : 69;
16DC : 01;
16DD : 9d;
16DE : d0;
16DF : 05;
16E0 : 84;
16E1 : 5a;
16E2 : 20;
16E3 : cf;
16E4 : ca;
16E5 : a5;
16E6 : 24;
16E7 : c9;
16E8 : 05;
16E9 : 90;
16EA : f7;
16EB : 9d;
16EC : 80;
16ED : 05;
16EE : a5;
16EF : 25;
16F0 : 9d;
16F1 : 94;
16F2 : 05;
16F3 : a9;
16F4 : 00;
16F5 : 9d;
16F6 : b2;
16F7 : 05;
16F8 : 9d;
16F9 : da;
16FA : 05;
16FB : 9d;
16FC : c6;
16FD : 05;
16FE : 9d;
16FF : e4;
1700 : 05;
1701 : a4;
1702 : 5a;
1703 : c8;
1704 : ca;
1705 : 10;
1706 : b7;
1707 : 60;
1708 : 01;
1709 : 01;
170A : 01;
170B : 01;
170C : 01;
170D : 01;
170E : 00;
170F : 00;
1710 : 00;
1711 : 00;
1712 : 01;
1713 : 01;
1714 : 01;
1715 : 02;
1716 : 02;
1717 : 02;
1718 : 00;
1719 : 00;
171A : 00;
171B : 00;
171C : 01;
171D : 01;
171E : 02;
171F : 02;
1720 : 03;
1721 : 03;
1722 : 00;
1723 : 00;
1724 : 00;
1725 : 00;
1726 : 01;
1727 : 02;
1728 : 03;
1729 : 03;
172A : 04;
172B : 04;
172C : 00;
172D : 00;
172E : 00;
172F : 00;
1730 : 02;
1731 : 02;
1732 : 02;
1733 : 02;
1734 : 03;
1735 : 03;
1736 : 03;
1737 : 00;
1738 : 00;
1739 : 00;
173A : 02;
173B : 02;
173C : 03;
173D : 03;
173E : 03;
173F : 04;
1740 : 04;
1741 : 00;
1742 : 00;
1743 : 00;
1744 : 02;
1745 : 02;
1746 : 03;
1747 : 03;
1748 : 03;
1749 : 05;
174A : 05;
174B : 00;
174C : 00;
174D : 00;
174E : 02;
174F : 03;
1750 : 03;
1751 : 04;
1752 : 04;
1753 : 04;
1754 : 04;
1755 : 00;
1756 : 00;
1757 : 00;
1758 : 02;
1759 : 03;
175A : 04;
175B : 04;
175C : 04;
175D : 04;
175E : 06;
175F : 00;
1760 : 00;
1761 : 00;
1762 : 02;
1763 : 03;
1764 : 04;
1765 : 05;
1766 : 06;
1767 : 06;
1768 : 06;
1769 : 00;
176A : 00;
176B : 00;
176C : 02;
176D : 03;
176E : 03;
176F : 04;
1770 : 04;
1771 : 04;
1772 : 05;
1773 : 06;
1774 : 00;
1775 : 00;
1776 : 02;
1777 : 03;
1778 : 04;
1779 : 05;
177A : 06;
177B : 06;
177C : 06;
177D : 06;
177E : 00;
177F : 00;
1780 : 03;
1781 : 03;
1782 : 03;
1783 : 04;
1784 : 04;
1785 : 04;
1786 : 06;
1787 : 06;
1788 : 00;
1789 : 00;
178A : 05;
178B : 05;
178C : 05;
178D : 05;
178E : 05;
178F : 05;
1790 : 05;
1791 : 07;
1792 : 00;
1793 : 00;
1794 : 03;
1795 : 04;
1796 : 04;
1797 : 04;
1798 : 06;
1799 : 06;
179A : 06;
179B : 07;
179C : 00;
179D : 00;
179E : 04;
179F : 04;
17A0 : 04;
17A1 : 06;
17A2 : 06;
17A3 : 06;
17A4 : 06;
17A5 : 07;
17A6 : 00;
17A7 : 00;
17A8 : 03;
17A9 : 03;
17AA : 03;
17AB : 03;
17AC : 03;
17AD : 06;
17AE : 06;
17AF : 07;
17B0 : 00;
17B1 : 00;
17B2 : 01;
17B3 : 01;
17B4 : 01;
17B5 : 02;
17B6 : 02;
17B7 : 02;
17B8 : 07;
17B9 : 07;
17BA : 00;
17BB : 00;
17BC : 01;
17BD : 02;
17BE : 03;
17BF : 03;
17C0 : 03;
17C1 : 05;
17C2 : 07;
17C3 : 07;
17C4 : 00;
17C5 : 00;
17C6 : 02;
17C7 : 03;
17C8 : 04;
17C9 : 05;
17CA : 06;
17CB : 06;
17CC : 07;
17CD : 07;
17CE : 00;
17CF : 00;
17D0 : 05;
17D1 : 05;
17D2 : 05;
17D3 : 06;
17D4 : 06;
17D5 : 06;
17D6 : 06;
17D7 : 07;
17D8 : 07;
17D9 : 00;
17DA : 03;
17DB : 03;
17DC : 03;
17DD : 03;
17DE : 04;
17DF : 04;
17E0 : 04;
17E1 : 06;
17E2 : 07;
17E3 : 00;
17E4 : 03;
17E5 : 03;
17E6 : 04;
17E7 : 04;
17E8 : 05;
17E9 : 05;
17EA : 06;
17EB : 06;
17EC : 07;
17ED : 00;
17EE : 03;
17EF : 04;
17F0 : 05;
17F1 : 06;
17F2 : 06;
17F3 : 05;
17F4 : 06;
17F5 : 06;
17F6 : 07;
17F7 : 00;
17F8 : 02;
17F9 : 02;
17FA : 03;
17FB : 04;
17FC : 05;
17FD : 05;
17FE : 06;
17FF : 06;
1800 : 07;
1801 : 00;
1802 : 01;
1803 : 02;
1804 : 03;
1805 : 04;
1806 : 05;
1807 : 05;
1808 : 06;
1809 : 06;
180A : 07;
180B : 00;
180C : 01;
180D : 02;
180E : 06;
180F : 06;
1810 : 06;
1811 : 05;
1812 : 06;
1813 : 06;
1814 : 07;
1815 : 00;
1816 : 02;
1817 : 03;
1818 : 03;
1819 : 03;
181A : 04;
181B : 04;
181C : 04;
181D : 06;
181E : 07;
181F : 00;
1820 : 05;
1821 : 05;
1822 : 05;
1823 : 05;
1824 : 05;
1825 : 06;
1826 : 07;
1827 : 06;
1828 : 07;
1829 : 00;
182A : 03;
182B : 03;
182C : 03;
182D : 04;
182E : 04;
182F : 05;
1830 : 05;
1831 : 06;
1832 : 07;
1833 : 00;
1834 : 02;
1835 : 02;
1836 : 03;
1837 : 03;
1838 : 04;
1839 : 04;
183A : 05;
183B : 05;
183C : 06;
183D : 06;
183E : 02;
183F : 03;
1840 : 04;
1841 : 04;
1842 : 04;
1843 : 06;
1844 : 06;
1845 : 06;
1846 : 06;
1847 : 07;
1848 : 03;
1849 : 03;
184A : 04;
184B : 04;
184C : 05;
184D : 06;
184E : 06;
184F : 07;
1850 : 06;
1851 : 07;
1852 : 03;
1853 : 03;
1854 : 04;
1855 : 04;
1856 : 04;
1857 : 06;
1858 : 06;
1859 : 07;
185A : 06;
185B : 07;
185C : 03;
185D : 03;
185E : 04;
185F : 05;
1860 : 00;
1861 : 06;
1862 : 06;
1863 : 07;
1864 : 06;
1865 : 07;
1866 : 03;
1867 : 03;
1868 : 04;
1869 : 04;
186A : 06;
186B : 06;
186C : 07;
186D : 06;
186E : 07;
186F : 07;
1870 : 03;
1871 : 03;
1872 : 04;
1873 : 05;
1874 : 06;
1875 : 06;
1876 : 07;
1877 : 06;
1878 : 07;
1879 : 07;
187A : 03;
187B : 03;
187C : 04;
187D : 04;
187E : 06;
187F : 06;
1880 : 07;
1881 : 06;
1882 : 07;
1883 : 07;
1884 : 03;
1885 : 04;
1886 : 05;
1887 : 05;
1888 : 06;
1889 : 07;
188A : 06;
188B : 07;
188C : 07;
188D : 07;
188E : 03;
188F : 04;
1890 : 04;
1891 : 06;
1892 : 06;
1893 : 07;
1894 : 06;
1895 : 07;
1896 : 07;
1897 : 07;
1898 : 03;
1899 : 04;
189A : 05;
189B : 06;
189C : 06;
189D : 06;
189E : 07;
189F : 07;
18A0 : 07;
18A1 : 07;
18A2 : 04;
18A3 : 05;
18A4 : 06;
18A5 : 06;
18A6 : 07;
18A7 : 06;
18A8 : 07;
18A9 : 07;
18AA : 07;
18AB : 07;
18AC : 04;
18AD : 05;
18AE : 06;
18AF : 07;
18B0 : 06;
18B1 : 07;
18B2 : 07;
18B3 : 07;
18B4 : 07;
18B5 : 07;
18B6 : 04;
18B7 : 05;
18B8 : 06;
18B9 : 07;
18BA : 06;
18BB : 07;
18BC : 07;
18BD : 07;
18BE : 07;
18BF : 07;
18C0 : 05;
18C1 : 06;
18C2 : 05;
18C3 : 06;
18C4 : 07;
18C5 : 07;
18C6 : 07;
18C7 : 07;
18C8 : 07;
18C9 : 07;
18CA : 05;
18CB : 06;
18CC : 05;
18CD : 06;
18CE : 07;
18CF : 07;
18D0 : 07;
18D1 : 07;
18D2 : 07;
18D3 : 07;
18D4 : 06;
18D5 : 05;
18D6 : 05;
18D7 : 06;
18D8 : 07;
18D9 : 07;
18DA : 07;
18DB : 07;
18DC : 07;
18DD : 07;
18DE : 06;
18DF : 05;
18E0 : 06;
18E1 : 07;
18E2 : 07;
18E3 : 07;
18E4 : 07;
18E5 : 07;
18E6 : 07;
18E7 : 08;
18E8 : 05;
18E9 : 05;
18EA : 06;
18EB : 07;
18EC : 07;
18ED : 07;
18EE : 07;
18EF : 07;
18F0 : 07;
18F1 : 08;
18F2 : 05;
18F3 : 05;
18F4 : 06;
18F5 : 07;
18F6 : 07;
18F7 : 07;
18F8 : 07;
18F9 : 07;
18FA : 08;
18FB : 08;
18FC : 86;
18FD : 24;
18FE : 84;
18FF : 25;
1900 : 48;
1901 : a5;
1902 : 14;
1903 : 38;
1904 : e5;
1905 : 15;
1906 : c9;
1907 : 08;
1908 : f0;
1909 : f7;
190A : 68;
190B : 20;
190C : 24;
190D : d9;
190E : a4;
190F : 15;
1910 : a2;
1911 : 00;
1912 : b5;
1913 : 17;
1914 : 99;
1915 : 00;
1916 : 06;
1917 : c8;
1918 : e8;
1919 : e0;
191A : 08;
191B : d0;
191C : f5;
191D : 84;
191E : 15;
191F : a6;
1920 : 24;
1921 : a4;
1922 : 25;
1923 : 60;
1924 : a8;
1925 : 0a;
1926 : 0a;
1927 : 85;
1928 : 1a;
1929 : b9;
192A : 94;
192B : d9;
192C : 85;
192D : 1e;
192E : a0;
192F : 00;
1930 : a5;
1931 : 1f;
1932 : c9;
1933 : 10;
1934 : 90;
1935 : 04;
1936 : a0;
1937 : 04;
1938 : e9;
1939 : 10;
193A : 84;
193B : 17;
193C : 0a;
193D : 85;
193E : 21;
193F : a5;
1940 : 20;
1941 : 18;
1942 : 69;
1943 : 02;
1944 : 0a;
1945 : 85;
1946 : 22;
1947 : 29;
1948 : fc;
1949 : 0a;
194A : 85;
194B : 1b;
194C : a5;
194D : 21;
194E : 4a;
194F : 4a;
1950 : 18;
1951 : 65;
1952 : 1b;
1953 : 18;
1954 : 69;
1955 : c0;
1956 : 85;
1957 : 1b;
1958 : a9;
1959 : 23;
195A : 85;
195B : 1c;
195C : a9;
195D : 02;
195E : 25;
195F : 22;
1960 : 85;
1961 : 23;
1962 : a5;
1963 : 21;
1964 : 29;
1965 : 03;
1966 : 4a;
1967 : 18;
1968 : 65;
1969 : 23;
196A : 0a;
196B : 48;
196C : a9;
196D : fc;
196E : 85;
196F : 1d;
1970 : 68;
1971 : aa;
1972 : f0;
1973 : 08;
1974 : 06;
1975 : 1e;
1976 : 38;
1977 : 26;
1978 : 1d;
1979 : ca;
197A : d0;
197B : f8;
197C : a9;
197D : 01;
197E : 85;
197F : 19;
1980 : a5;
1981 : 22;
1982 : a2;
1983 : 05;
1984 : 0a;
1985 : 26;
1986 : 19;
1987 : ca;
1988 : d0;
1989 : fa;
198A : 18;
198B : 65;
198C : 21;
198D : 85;
198E : 18;
198F : 90;
1990 : 02;
1991 : e6;
1992 : 19;
1993 : 60;
1994 : 00;
1995 : 00;
1996 : 00;
1997 : 01;
1998 : 01;
1999 : 01;
199A : 01;
199B : 01;
199C : 00;
199D : 00;
199E : 00;
199F : 01;
19A0 : 01;
19A1 : 01;
19A2 : 01;
19A3 : 01;
19A4 : 01;
19A5 : 01;
19A6 : 01;
19A7 : 01;
19A8 : 01;
19A9 : 01;
19AA : 01;
19AB : 01;
19AC : 01;
19AD : 01;
19AE : 01;
19AF : 01;
19B0 : 01;
19B1 : 01;
19B2 : 01;
19B3 : 01;
19B4 : 01;
19B5 : 01;
19B6 : 01;
19B7 : 01;
19B8 : 01;
19B9 : 01;
19BA : 01;
19BB : 01;
19BC : 03;
19BD : 02;
19BE : 02;
19BF : 02;
19C0 : 02;
19C1 : 02;
19C2 : 02;
19C3 : 02;
19C4 : 02;
19C5 : 03;
19C6 : 5f;
19C7 : 5f;
19C8 : 5f;
19C9 : 5f;
19CA : 64;
19CB : 65;
19CC : 66;
19CD : 67;
19CE : 68;
19CF : 69;
19D0 : 6a;
19D1 : 6b;
19D2 : 6c;
19D3 : 6d;
19D4 : 6e;
19D5 : 6f;
19D6 : 70;
19D7 : 71;
19D8 : 72;
19D9 : 73;
19DA : 74;
19DB : 75;
19DC : 76;
19DD : 77;
19DE : 78;
19DF : 79;
19E0 : 7a;
19E1 : 7b;
19E2 : 7c;
19E3 : 7d;
19E4 : 7e;
19E5 : 7f;
19E6 : 80;
19E7 : 81;
19E8 : 82;
19E9 : 83;
19EA : 84;
19EB : 85;
19EC : 86;
19ED : 87;
19EE : 88;
19EF : 89;
19F0 : 8a;
19F1 : 8b;
19F2 : 8c;
19F3 : 8d;
19F4 : 8e;
19F5 : 8f;
19F6 : 90;
19F7 : 91;
19F8 : 92;
19F9 : 93;
19FA : 94;
19FB : 95;
19FC : 96;
19FD : 97;
19FE : 98;
19FF : 99;
1A00 : 9a;
1A01 : 9b;
1A02 : 20;
1A03 : 20;
1A04 : 21;
1A05 : 21;
1A06 : 22;
1A07 : 23;
1A08 : 22;
1A09 : 23;
1A0A : 24;
1A0B : 24;
1A0C : 25;
1A0D : 25;
1A0E : 26;
1A0F : 27;
1A10 : 26;
1A11 : 27;
1A12 : 28;
1A13 : 28;
1A14 : 29;
1A15 : 29;
1A16 : 2a;
1A17 : 2b;
1A18 : 2a;
1A19 : 2b;
1A1A : 2c;
1A1B : 2c;
1A1C : 2d;
1A1D : 2d;
1A1E : 2e;
1A1F : 2f;
1A20 : 2e;
1A21 : 2f;
1A22 : 20;
1A23 : 9d;
1A24 : 21;
1A25 : 9f;
1A26 : 9c;
1A27 : 9d;
1A28 : 22;
1A29 : 23;
1A2A : 9c;
1A2B : 20;
1A2C : 9e;
1A2D : 21;
1A2E : 22;
1A2F : 23;
1A30 : 9e;
1A31 : 9f;
1A32 : 24;
1A33 : a1;
1A34 : 25;
1A35 : a3;
1A36 : a0;
1A37 : a1;
1A38 : 26;
1A39 : 27;
1A3A : a0;
1A3B : 24;
1A3C : a2;
1A3D : 25;
1A3E : 26;
1A3F : 27;
1A40 : a2;
1A41 : a3;
1A42 : 28;
1A43 : a5;
1A44 : 29;
1A45 : a7;
1A46 : a4;
1A47 : a5;
1A48 : 2a;
1A49 : 2b;
1A4A : a4;
1A4B : 28;
1A4C : a6;
1A4D : 29;
1A4E : 2a;
1A4F : 2b;
1A50 : a6;
1A51 : a7;
1A52 : 2c;
1A53 : a9;
1A54 : 2d;
1A55 : ab;
1A56 : a8;
1A57 : a9;
1A58 : 2e;
1A59 : 2f;
1A5A : a8;
1A5B : 2c;
1A5C : aa;
1A5D : 2d;
1A5E : 2e;
1A5F : 2f;
1A60 : aa;
1A61 : ab;
1A62 : 68;
1A63 : 69;
1A64 : 6a;
1A65 : 6b;
1A66 : 3c;
1A67 : 3d;
1A68 : 3e;
1A69 : 3f;
1A6A : 00;
1A6B : 01;
1A6C : 10;
1A6D : 11;
1A6E : 02;
1A6F : 03;
1A70 : 12;
1A71 : 13;
1A72 : 04;
1A73 : 05;
1A74 : 14;
1A75 : 15;
1A76 : 06;
1A77 : 07;
1A78 : 16;
1A79 : 17;
1A7A : 08;
1A7B : 09;
1A7C : 18;
1A7D : 19;
1A7E : 0a;
1A7F : 0b;
1A80 : 1a;
1A81 : 1b;
1A82 : 0c;
1A83 : 0d;
1A84 : 1c;
1A85 : 1d;
1A86 : 0e;
1A87 : 0f;
1A88 : 1e;
1A89 : 1f;
1A8A : 68;
1A8B : 69;
1A8C : 6a;
1A8D : 6b;
1A8E : 20;
1A8F : 57;
1A90 : c2;
1A91 : 20;
1A92 : b9;
1A93 : c2;
1A94 : 20;
1A95 : 27;
1A96 : df;
1A97 : a9;
1A98 : 00;
1A99 : 85;
1A9A : 60;
1A9B : 85;
1A9C : 72;
1A9D : 85;
1A9E : b5;
1A9F : a0;
1AA0 : 9f;
1AA1 : a9;
1AA2 : 20;
1AA3 : a2;
1AA4 : e7;
1AA5 : 20;
1AA6 : 41;
1AA7 : dc;
1AA8 : 20;
1AA9 : 3b;
1AAA : c2;
1AAB : a9;
1AAC : 06;
1AAD : 85;
1AAE : 1f;
1AAF : a9;
1AB0 : 3a;
1AB1 : 85;
1AB2 : 20;
1AB3 : a0;
1AB4 : 00;
1AB5 : 20;
1AB6 : 8b;
1AB7 : c2;
1AB8 : a9;
1AB9 : 22;
1ABA : a6;
1ABB : 1f;
1ABC : 20;
1ABD : 96;
1ABE : c1;
1ABF : a5;
1AC0 : 20;
1AC1 : 8d;
1AC2 : 07;
1AC3 : 20;
1AC4 : 20;
1AC5 : 96;
1AC6 : c2;
1AC7 : a2;
1AC8 : 0a;
1AC9 : 20;
1ACA : 8b;
1ACB : c2;
1ACC : a5;
1ACD : 12;
1ACE : 29;
1ACF : 8f;
1AD0 : d0;
1AD1 : 26;
1AD2 : ca;
1AD3 : d0;
1AD4 : f4;
1AD5 : 20;
1AD6 : 8b;
1AD7 : c2;
1AD8 : a9;
1AD9 : 22;
1ADA : a6;
1ADB : 1f;
1ADC : 20;
1ADD : 96;
1ADE : c1;
1ADF : a9;
1AE0 : 3b;
1AE1 : 8d;
1AE2 : 07;
1AE3 : 20;
1AE4 : 20;
1AE5 : 96;
1AE6 : c2;
1AE7 : a2;
1AE8 : 0a;
1AE9 : 20;
1AEA : 8b;
1AEB : c2;
1AEC : a5;
1AED : 12;
1AEE : 29;
1AEF : 8f;
1AF0 : d0;
1AF1 : 06;
1AF2 : ca;
1AF3 : d0;
1AF4 : f4;
1AF5 : 4c;
1AF6 : b5;
1AF7 : da;
1AF8 : 30;
1AF9 : 49;
1AFA : 48;
1AFB : a9;
1AFC : 12;
1AFD : 8d;
1AFE : 03;
1AFF : 40;
1B00 : 68;
1B01 : c9;
1B02 : 01;
1B03 : f0;
1B04 : 1f;
1B05 : a5;
1B06 : 20;
1B07 : c9;
1B08 : 3a;
1B09 : d0;
1B0A : 04;
1B0B : a9;
1B0C : 51;
1B0D : 85;
1B0E : 20;
1B0F : a5;
1B10 : 20;
1B11 : c9;
1B12 : 41;
1B13 : f0;
1B14 : 05;
1B15 : c6;
1B16 : 20;
1B17 : 4c;
1B18 : 1e;
1B19 : db;
1B1A : a9;
1B1B : 50;
1B1C : 85;
1B1D : 20;
1B1E : 20;
1B1F : 07;
1B20 : c3;
1B21 : 4c;
1B22 : b5;
1B23 : da;
1B24 : a5;
1B25 : 20;
1B26 : c9;
1B27 : 3a;
1B28 : d0;
1B29 : 04;
1B2A : a9;
1B2B : 40;
1B2C : 85;
1B2D : 20;
1B2E : a5;
1B2F : 20;
1B30 : c9;
1B31 : 50;
1B32 : f0;
1B33 : 05;
1B34 : e6;
1B35 : 20;
1B36 : 4c;
1B37 : 3d;
1B38 : db;
1B39 : a9;
1B3A : 41;
1B3B : 85;
1B3C : 20;
1B3D : 20;
1B3E : 07;
1B3F : c3;
1B40 : 4c;
1B41 : b5;
1B42 : da;
1B43 : a9;
1B44 : 11;
1B45 : 8d;
1B46 : 03;
1B47 : 40;
1B48 : a5;
1B49 : 20;
1B4A : c9;
1B4B : 3a;
1B4C : f0;
1B4D : f2;
1B4E : 29;
1B4F : 0f;
1B50 : aa;
1B51 : bd;
1B52 : a0;
1B53 : df;
1B54 : 99;
1B55 : 7f;
1B56 : 00;
1B57 : 20;
1B58 : 8b;
1B59 : c2;
1B5A : a9;
1B5B : 22;
1B5C : a6;
1B5D : 1f;
1B5E : 20;
1B5F : 96;
1B60 : c1;
1B61 : a5;
1B62 : 20;
1B63 : 8d;
1B64 : 07;
1B65 : 20;
1B66 : 20;
1B67 : 96;
1B68 : c2;
1B69 : a9;
1B6A : 3a;
1B6B : 85;
1B6C : 20;
1B6D : e6;
1B6E : 1f;
1B6F : c8;
1B70 : c0;
1B71 : 14;
1B72 : f0;
1B73 : 06;
1B74 : 20;
1B75 : 07;
1B76 : c3;
1B77 : 4c;
1B78 : b5;
1B79 : da;
1B7A : a2;
1B7B : 00;
1B7C : 86;
1B7D : 54;
1B7E : b5;
1B7F : 7f;
1B80 : 48;
1B81 : 18;
1B82 : 69;
1B83 : 07;
1B84 : 18;
1B85 : 65;
1B86 : 54;
1B87 : 29;
1B88 : 0f;
1B89 : 95;
1B8A : 7f;
1B8B : 68;
1B8C : 85;
1B8D : 54;
1B8E : e8;
1B8F : e0;
1B90 : 14;
1B91 : d0;
1B92 : eb;
1B93 : a2;
1B94 : 00;
1B95 : a0;
1B96 : 04;
1B97 : a9;
1B98 : 00;
1B99 : 18;
1B9A : 75;
1B9B : 7f;
1B9C : e8;
1B9D : 88;
1B9E : d0;
1B9F : f9;
1BA0 : 29;
1BA1 : 0f;
1BA2 : d5;
1BA3 : 7f;
1BA4 : d0;
1BA5 : 26;
1BA6 : e8;
1BA7 : e0;
1BA8 : 0f;
1BA9 : d0;
1BAA : ea;
1BAB : a5;
1BAC : 83;
1BAD : 0a;
1BAE : 85;
1BAF : 1f;
1BB0 : a5;
1BB1 : 88;
1BB2 : 0a;
1BB3 : 18;
1BB4 : 65;
1BB5 : 1f;
1BB6 : 85;
1BB7 : 1f;
1BB8 : a5;
1BB9 : 8d;
1BBA : 0a;
1BBB : 18;
1BBC : 65;
1BBD : 1f;
1BBE : a2;
1BBF : 04;
1BC0 : 18;
1BC1 : 75;
1BC2 : 8d;
1BC3 : ca;
1BC4 : d0;
1BC5 : fa;
1BC6 : 29;
1BC7 : 0f;
1BC8 : c5;
1BC9 : 92;
1BCA : f0;
1BCB : 03;
1BCC : 4c;
1BCD : 8e;
1BCE : da;
1BCF : a2;
1BD0 : 00;
1BD1 : a0;
1BD2 : 00;
1BD3 : 20;
1BD4 : 53;
1BD5 : e3;
1BD6 : b9;
1BD7 : 7f;
1BD8 : 00;
1BD9 : 84;
1BDA : 25;
1BDB : a0;
1BDC : 00;
1BDD : 91;
1BDE : 34;
1BDF : a4;
1BE0 : 25;
1BE1 : c8;
1BE2 : c0;
1BE3 : 14;
1BE4 : d0;
1BE5 : ed;
1BE6 : a5;
1BE7 : dc;
1BE8 : 0a;
1BE9 : 0a;
1BEA : 0a;
1BEB : 0a;
1BEC : 85;
1BED : 73;
1BEE : a5;
1BEF : de;
1BF0 : 0a;
1BF1 : 0a;
1BF2 : 0a;
1BF3 : 0a;
1BF4 : 05;
1BF5 : dd;
1BF6 : 85;
1BF7 : 58;
1BF8 : 60;
1BF9 : 20;
1BFA : 57;
1BFB : c2;
1BFC : 20;
1BFD : b9;
1BFE : c2;
1BFF : 20;
1C00 : 27;
1C01 : df;
1C02 : a9;
1C03 : 06;
1C04 : 20;
1C05 : 04;
1C06 : dd;
1C07 : a0;
1C08 : 00;
1C09 : 20;
1C0A : 39;
1C0B : dc;
1C0C : 20;
1C0D : 39;
1C0E : dc;
1C0F : 20;
1C10 : 39;
1C11 : dc;
1C12 : 20;
1C13 : 39;
1C14 : dc;
1C15 : 20;
1C16 : 39;
1C17 : dc;
1C18 : 20;
1C19 : 39;
1C1A : dc;
1C1B : 20;
1C1C : 39;
1C1D : dc;
1C1E : a9;
1C1F : 0a;
1C20 : 85;
1C21 : 20;
1C22 : a9;
1C23 : 00;
1C24 : 85;
1C25 : 1f;
1C26 : a9;
1C27 : 31;
1C28 : 20;
1C29 : 4e;
1C2A : cb;
1C2B : e6;
1C2C : 1f;
1C2D : a5;
1C2E : 1f;
1C2F : c9;
1C30 : 10;
1C31 : d0;
1C32 : f3;
1C33 : 20;
1C34 : b0;
1C35 : c2;
1C36 : 4c;
1C37 : 3b;
1C38 : c2;
1C39 : b9;
1C3A : 53;
1C3B : dc;
1C3C : c8;
1C3D : be;
1C3E : 53;
1C3F : dc;
1C40 : c8;
1C41 : 20;
1C42 : 96;
1C43 : c1;
1C44 : b9;
1C45 : 53;
1C46 : dc;
1C47 : c8;
1C48 : c9;
1C49 : 00;
1C4A : f0;
1C4B : 06;
1C4C : 8d;
1C4D : 07;
1C4E : 20;
1C4F : 4c;
1C50 : 44;
1C51 : dc;
1C52 : 60;
1C53 : 20;
1C54 : 88;
1C55 : 43;
1C56 : 4f;
1C57 : 4e;
1C58 : 47;
1C59 : 52;
1C5A : 41;
1C5B : 54;
1C5C : 55;
1C5D : 4c;
1C5E : 41;
1C5F : 54;
1C60 : 49;
1C61 : 4f;
[...]
78E7 : ff;
78E8 : ff;
78E9 : ff;
78EA : ff;
78EB : f0;
78EC : 00;
78ED : 00;
78EE : 00;
78EF : 00;
78F0 : 00;
78F1 : ce;
78F2 : 75;
78F3 : 9d;
78F4 : 9c;
78F5 : e7;
78F6 : 99;
78F7 : 99;
78F8 : 9a;
78F9 : 6a;
78FA : 64;
78FB : cc;
78FC : cc;
78FD : cc;
78FE : cd;
78FF : 6b;
7900 : 2a;
7901 : 67;
7902 : 35;
7903 : 9b;
7904 : 33;
7905 : 19;
7906 : 8c;
7907 : cc;
7908 : cc;
7909 : ca;
790A : 67;
790B : 7f;
790C : f2;
790D : 00;
790E : 02;
790F : 19;
7910 : db;
7911 : b7;
7912 : 5d;
7913 : ff;
7914 : ff;
7915 : fc;
7916 : 20;
7917 : 00;
7918 : 00;
7919 : 00;
791A : 00;
791B : 17;
791C : f6;
791D : 33;
791E : 3e;
791F : ff;
7920 : ff;
7921 : ff;
7922 : fe;
7923 : f5;
7924 : 8d;
7925 : 9f;
7926 : 4c;
7927 : 00;
7928 : 00;
7929 : 00;
792A : 00;
792B : 00;
792C : 00;
792D : 00;
792E : 3f;
792F : ff;
7930 : ff;
7931 : ff;
7932 : ff;
7933 : ff;
7934 : ff;
7935 : f4;
7936 : 80;
7937 : 00;
7938 : 00;
7939 : 00;
793A : 00;
793B : 7f;
793C : ff;
793D : e6;
793E : 50;
793F : 80;
7940 : 00;
7941 : 19;
7942 : ff;
7943 : ff;
7944 : ff;
7945 : ff;
7946 : ff;
7947 : eb;
7948 : 33;
7949 : 12;
794A : 00;
794B : 00;
794C : 81;
794D : 10;
794E : 22;
794F : 33;
7950 : b5;
7951 : 22;
7952 : 12;
7953 : 53;
7954 : 5b;
7955 : 5d;
7956 : 7b;
7957 : f7;
7958 : ee;
7959 : ba;
795A : cc;
795B : cc;
795C : cd;
795D : 99;
795E : 98;
795F : c6;
7960 : 66;
7961 : 71;
7962 : 98;
7963 : 88;
7964 : 91;
7965 : 8c;
7966 : 4c;
7967 : fb;
7968 : 52;
7969 : 42;
796A : 52;
796B : 99;
796C : dd;
796D : d9;
796E : 9d;
796F : bf;
7970 : bf;
7971 : cc;
7972 : 44;
7973 : 01;
7974 : 01;
7975 : 00;
7976 : 00;
7977 : 14;
7978 : ee;
7979 : ff;
797A : ff;
797B : ff;
797C : ff;
797D : fd;
797E : 77;
797F : 7e;
7980 : 42;
7981 : 00;
7982 : 40;
7983 : 00;
7984 : 00;
7985 : 00;
7986 : 00;
7987 : 0a;
7988 : 33;
7989 : 3d;
798A : ff;
798B : ff;
798C : ff;
798D : ff;
798E : ff;
798F : fe;
7990 : 66;
7991 : 62;
7992 : 22;
7993 : 08;
7994 : 41;
7995 : 02;
7996 : 13;
7997 : 31;
7998 : 84;
7999 : 10;
799A : 09;
799B : af;
799C : 7b;
799D : 5c;
799E : cc;
799F : d6;
79A0 : 73;
79A1 : 39;
79A2 : 94;
79A3 : b3;
79A4 : bf;
79A5 : ff;
79A6 : ff;
79A7 : ff;
79A8 : ee;
79A9 : d6;
79AA : 66;
79AB : 28;
79AC : a2;
79AD : 08;
79AE : 40;
79AF : 10;
79B0 : ca;
79B1 : 40;
79B2 : 00;
79B3 : 00;
79B4 : 10;
79B5 : 50;
79B6 : cc;
79B7 : cd;
79B8 : bb;
79B9 : f7;
79BA : f7;
79BB : fd;
79BC : ff;
79BD : 7e;
79BE : fa;
79BF : d5;
79C0 : 98;
79C1 : c5;
79C2 : 33;
79C3 : 67;
79C4 : ae;
79C5 : 75;
79C6 : 99;
79C7 : 4a;
79C8 : 10;
79C9 : 40;
79CA : 81;
79CB : 01;
79CC : 00;
79CD : 90;
79CE : 51;
79CF : 8c;
79D0 : cd;
79D1 : ef;
79D2 : f5;
79D3 : a9;
79D4 : 45;
79D5 : 12;
79D6 : 94;
79D7 : cc;
79D8 : c9;
79D9 : 9e;
79DA : f7;
79DB : ff;
79DC : ff;
79DD : ff;
79DE : ff;
79DF : 79;
79E0 : d9;
79E1 : cc;
79E2 : e5;
79E3 : 48;
79E4 : 88;
79E5 : 84;
79E6 : 04;
79E7 : 08;
79E8 : 21;
79E9 : 11;
79EA : 14;
79EB : e3;
79EC : 1c;
79ED : d3;
79EE : 35;
79EF : 99;
79F0 : 91;
79F1 : 00;
79F2 : 09;
79F3 : 36;
79F4 : ff;
79F5 : ff;
79F6 : ff;
79F7 : fd;
79F8 : 6b;
79F9 : 32;
79FA : 28;
79FB : 00;
79FC : 81;
79FD : 29;
79FE : b7;
79FF : 7b;
7A00 : f7;
7A01 : eb;
7A02 : b5;
7A03 : 9b;
7A04 : 19;
7A05 : 4a;
7A06 : 24;
7A07 : 44;
7A08 : 42;
7A09 : 25;
7A0A : 59;
7A0B : 98;
7A0C : 81;
7A0D : 20;
7A0E : 24;
7A0F : 46;
7A10 : 33;
7A11 : 33;
7A12 : 9e;
7A13 : ee;
7A14 : fb;
7A15 : f7;
7A16 : ff;
7A17 : be;
7A18 : d9;
7A19 : 9c;
7A1A : ef;
7A1B : 75;
7A1C : ed;
7A1D : ee;
7A1E : d9;
7A1F : 84;
7A20 : 41;
7A21 : 04;
7A22 : 00;
7A23 : 81;
7A24 : 01;
7A25 : 09;
7A26 : 11;
7A27 : 14;
7A28 : 4c;
7A29 : 6a;
7A2A : 6b;
7A2B : 39;
7A2C : cf;
7A2D : ba;
7A2E : e6;
7A2F : b7;
7A30 : 7f;
7A31 : df;
7A32 : 66;
7A33 : 22;
7A34 : 00;
7A35 : 04;
7A36 : 65;
7A37 : d7;
7A38 : bf;
7A39 : be;
7A3A : ff;
7A3B : bd;
7A3C : ce;
7A3D : 66;
7A3E : 62;
7A3F : 94;
7A40 : 91;
7A41 : 42;
7A42 : 93;
7A43 : ac;
7A44 : c4;
7A45 : 00;
7A46 : 40;
7A47 : 20;
7A48 : 04;
7A49 : 08;
7A4A : cd;
7A4B : 7f;
7A4C : ff;
7A4D : ff;
7A4E : f7;
7A4F : fb;
7A50 : ef;
7A51 : 76;
7A52 : a4;
7A53 : 88;
7A54 : 84;
7A55 : 11;
7A56 : 23;
7A57 : 18;
7A58 : c6;
7A59 : 62;
7A5A : 45;
7A5B : 18;
7A5C : a4;
7A5D : cc;
7A5E : d6;
7A5F : 77;
7A60 : be;
7A61 : d9;
7A62 : 89;
7A63 : 21;
7A64 : 08;
7A65 : a2;
7A66 : 98;
7A67 : da;
7A68 : eb;
7A69 : db;
7A6A : bb;
7A6B : ef;
7A6C : de;
7A6D : ed;
7A6E : 99;
7A6F : 8a;
7A70 : 6b;
7A71 : 5b;
7A72 : 5d;
7A73 : d6;
7A74 : cc;
7A75 : cc;
7A76 : e7;
7A77 : 28;
7A78 : 00;
7A79 : 00;
7A7A : 00;
7A7B : 00;
7A7C : 00;
7A7D : 99;
7A7E : 33;
7A7F : 1c;
7A80 : db;
7A81 : de;
7A82 : f7;
7A83 : 7f;
7A84 : bf;
7A85 : ce;
7A86 : 75;
7A87 : 9a;
7A88 : cd;
7A89 : 93;
7A8A : 08;
7A8B : a6;
7A8C : 67;
7A8D : 36;
7A8E : b6;
7A8F : b6;
7A90 : b3;
7A91 : 9c;
7A92 : d9;
7A93 : 9b;
7A94 : 24;
7A95 : 10;
7A96 : 21;
7A97 : 02;
7A98 : 11;
7A99 : 46;
7A9A : 4c;
7A9B : cd;
7A9C : 9c;
7A9D : d9;
7A9E : d9;
7A9F : ce;
7AA0 : bd;
7AA1 : fb;
7AA2 : b9;
7AA3 : 94;
7AA4 : 24;
7AA5 : 22;
7AA6 : 46;
7AA7 : 32;
7AA8 : 66;
7AA9 : 6d;
7AAA : 75;
7AAB : ed;
7AAC : f7;
7AAD : 76;
7AAE : cd;
7AAF : b3;
7AB0 : 33;
7AB1 : 9a;
7AB2 : db;
7AB3 : 5a;
7AB4 : cd;
7AB5 : 67;
7AB6 : 30;
7AB7 : 84;
7AB8 : 21;
7AB9 : 11;
7ABA : 04;
7ABB : 22;
7ABC : 10;
7ABD : a3;
7ABE : 18;
7ABF : cc;
7AC0 : da;
7AC1 : d9;
7AC2 : 92;
7AC3 : 26;
7AC4 : 67;
7AC5 : 66;
7AC6 : 67;
7AC7 : 39;
7AC8 : d6;
7AC9 : eb;
7ACA : d7;
7ACB : bb;
7ACC : bb;
7ACD : 9d;
7ACE : 99;
7ACF : 99;
7AD0 : 99;
7AD1 : 9b;
7AD2 : 32;
7AD3 : 61;
7AD4 : 49;
7AD5 : 9d;
7AD6 : b3;
7AD7 : 8c;
7AD8 : 21;
7AD9 : 11;
7ADA : 10;
7ADB : 51;
7ADC : 43;
7ADD : 1b;
7ADE : 3d;
7ADF : fb;
7AE0 : fe;
7AE1 : fd;
7AE2 : ee;
7AE3 : e7;
7AE4 : 66;
7AE5 : 66;
7AE6 : 29;
7AE7 : 46;
7AE8 : 22;
7AE9 : 89;
7AEA : 14;
7AEB : 28;
7AEC : 4a;
7AED : 14;
7AEE : a6;
7AEF : 53;
7AF0 : 3b;
7AF1 : 6c;
7AF2 : cc;
7AF3 : 44;
7AF4 : 08;
7AF5 : 46;
7AF6 : 67;
7AF7 : 5f;
7AF8 : bf;
7AF9 : df;
7AFA : 77;
7AFB : be;
7AFC : fe;
7AFD : e6;
7AFE : 62;
7AFF : 28;
7B00 : 11;
7B01 : 08;
7B02 : 84;
7B03 : 82;
7B04 : 26;
7B05 : 6b;
7B06 : af;
7B07 : 7d;
7B08 : fe;
7B09 : dd;
7B0A : 66;
7B0B : 66;
7B0C : 33;
7B0D : 18;
7B0E : c5;
7B0F : 28;
7B10 : c5;
7B11 : 31;
7B12 : 4c;
7B13 : 65;
7B14 : 25;
7B15 : 32;
7B16 : a9;
7B17 : 99;
7B18 : 32;
7B19 : 66;
7B1A : 66;
7B1B : 66;
7B1C : b3;
7B1D : d6;
7B1E : cc;
7B1F : e7;
7B20 : 6e;
7B21 : 51;
7B22 : 22;
7B23 : 53;
7B24 : 67;
7B25 : 77;
7B26 : 7d;
7B27 : 73;
7B28 : 4a;
7B29 : 22;
7B2A : 96;
7B2B : 6c;
7B2C : cc;
7B2D : ca;
7B2E : 66;
7B2F : 33;
7B30 : 2c;
7B31 : cc;
7B32 : cc;
7B33 : e6;
7B34 : 6b;
7B35 : 35;
7B36 : 99;
7B37 : 9a;
7B38 : cb;
7B39 : 33;
7B3A : 32;
7B3B : 51;
7B3C : 24;
7B3D : cb;
7B3E : 39;
7B3F : d7;
7B40 : 39;
7B41 : cc;
7B42 : cc;
7B43 : c6;
7B44 : 63;
7B45 : 0a;
7B46 : 48;
7B47 : 88;
7B48 : 93;
7B49 : 18;
7B4A : 93;
7B4B : 18;
7B4C : cc;
7B4D : ce;
7B4E : 73;
7B4F : 9b;
7B50 : 59;
7B51 : cd;
7B52 : 75;
7B53 : dd;
7B54 : ee;
7B55 : b3;
7B56 : 19;
7B57 : 66;
7B58 : 73;
7B59 : 6b;
7B5A : 67;
7B5B : 59;
7B5C : ce;
7B5D : 66;
7B5E : 66;
7B5F : e7;
7B60 : 9a;
7B61 : 62;
7B62 : 10;
7B63 : 01;
7B64 : 04;
7B65 : 67;
7B66 : 6d;
7B67 : 99;
7B68 : 33;
7B69 : 33;
7B6A : 9d;
7B6B : ae;
7B6C : 76;
7B6D : b6;
7B6E : ac;
7B6F : cc;
7B70 : ce;
7B71 : 6c;
7B72 : ca;
7B73 : 22;
7B74 : 08;
7B75 : 10;
7B76 : 44;
7B77 : 49;
7B78 : 12;
7B79 : 93;
7B7A : 3a;
7B7B : ff;
7B7C : 7f;
7B7D : ad;
7B7E : 5a;
7B7F : da;
7B80 : eb;
7B81 : 6b;
7B82 : 39;
7B83 : cc;
7B84 : d9;
7B85 : 99;
7B86 : 93;
7B87 : 26;
7B88 : 29;
7B89 : 29;
7B8A : 31;
7B8B : 46;
7B8C : 31;
7B8D : 94;
7B8E : cc;
7B8F : cc;
7B90 : c6;
7B91 : 53;
7B92 : 99;
7B93 : 99;
7B94 : ab;
7B95 : 35;
7B96 : 6c;
7B97 : ce;
7B98 : 66;
7B99 : cd;
7B9A : 9a;
7B9B : e6;
7B9C : cd;
7B9D : 99;
7B9E : cd;
7B9F : 99;
7BA0 : b2;
7BA1 : b2;
7BA2 : 99;
7BA3 : 4c;
7BA4 : 66;
7BA5 : 31;
7BA6 : 98;
7BA7 : cc;
7BA8 : cc;
7BA9 : cd;
7BAA : 99;
7BAB : 98;
7BAC : d3;
7BAD : 58;
7BAE : ca;
7BAF : 99;
7BB0 : 9a;
7BB1 : db;
7BB2 : 29;
7BB3 : 49;
7BB4 : 14;
7BB5 : 45;
7BB6 : 26;
7BB7 : 33;
7BB8 : 35;
7BB9 : 9b;
7BBA : 39;
7BBB : b5;
7BBC : da;
7BBD : da;
7BBE : ec;
7BBF : e6;
7BC0 : cd;
7BC1 : 66;
7BC2 : cc;
7BC3 : cc;
7BC4 : c9;
7BC5 : 99;
7BC6 : 8c;
7BC7 : 99;
7BC8 : 93;
7BC9 : 18;
7BCA : c9;
7BCB : 8a;
7BCC : 22;
7BCD : 94;
7BCE : cd;
7BCF : 75;
7BD0 : ef;
7BD1 : 75;
7BD2 : 9a;
7BD3 : 51;
7BD4 : 14;
7BD5 : 44;
7BD6 : 89;
7BD7 : 25;
7BD8 : 29;
7BD9 : ac;
7BDA : d9;
7BDB : cc;
7BDC : e6;
7BDD : d6;
7BDE : b9;
7BDF : db;
7BE0 : 5c;
7BE1 : eb;
7BE2 : 33;
7BE3 : 33;
7BE4 : 39;
7BE5 : d7;
7BE6 : 6b;
7BE7 : 9d;
7BE8 : 9c;
7BE9 : e6;
7BEA : 66;
7BEB : 31;
7BEC : 8a;
7BED : 46;
7BEE : 14;
7BEF : 48;
7BF0 : a2;
7BF1 : 8c;
7BF2 : 62;
7BF3 : 63;
7BF4 : 26;
7BF5 : 66;
7BF6 : 66;
7BF7 : d7;
7BF8 : 66;
7BF9 : 32;
7BFA : 64;
7BFB : cc;
7BFC : cf;
7BFD : 39;
7BFE : ce;
7BFF : 76;
7C00 : 73;
7C01 : ad;
7C02 : 6b;
7C03 : 39;
7C04 : b3;
7C05 : 33;
7C06 : 32;
7C07 : 66;
7C08 : 4c;
7C09 : c9;
7C0A : 98;
7C0B : ca;
7C0C : 63;
7C0D : 18;
7C0E : ca;
7C0F : 66;
7C10 : 53;
7C11 : 33;
7C12 : 31;
7C13 : 99;
7C14 : 8c;
7C15 : cc;
7C16 : cc;
7C17 : d6;
7C18 : 66;
7C19 : b3;
7C1A : 33;
7C1B : 33;
7C1C : 39;
7C1D : b3;
7C1E : 99;
7C1F : b3;
7C20 : 94;
7C21 : 99;
7C22 : 32;
7C23 : 66;
7C24 : 29;
7C25 : 8c;
7C26 : 67;
7C27 : 5b;
7C28 : 5c;
7C29 : cc;
7C2A : cc;
7C2B : da;
7C2C : e7;
7C2D : 5a;
7C2E : cc;
7C2F : d6;
7C30 : 66;
7C31 : 63;
7C32 : 26;
7C33 : 31;
7C34 : 26;
7C35 : 56;
7C36 : 67;
7C37 : 3a;
7C38 : da;
7C39 : ce;
7C3A : 66;
7C3B : 66;
7C3C : 4c;
7C3D : 63;
7C3E : 18;
7C3F : c6;
7C40 : 29;
7C41 : 46;
7C42 : 66;
7C43 : 33;
7C44 : 31;
7C45 : 99;
7C46 : 99;
7C47 : ce;
7C48 : 73;
7C49 : 31;
7C4A : 85;
7C4B : 14;
7C4C : cc;
7C4D : d6;
7C4E : eb;
7C4F : ae;
7C50 : eb;
7C51 : d7;
7C52 : 6d;
7C53 : 6b;
7C54 : 36;
7C55 : 6b;
7C56 : 59;
7C57 : 89;
7C58 : 44;
7C59 : 93;
7C5A : 18;
7C5B : ca;
7C5C : 52;
7C5D : 91;
7C5E : 93;
7C5F : 32;
7C60 : c6;
7C61 : 69;
7C62 : 9a;
7C63 : cc;
7C64 : d9;
7C65 : 9a;
7C66 : cc;
7C67 : d9;
7C68 : 99;
7C69 : 66;
7C6A : 73;
7C6B : ad;
7C6C : 6e;
7C6D : b9;
7C6E : cc;
7C6F : c6;
7C70 : 24;
7C71 : 44;
7C72 : 44;
7C73 : 89;
7C74 : 28;
7C75 : a3;
7C76 : 13;
7C77 : 33;
7C78 : 5b;
7C79 : ae;
7C7A : ee;
7C7B : b5;
7C7C : ce;
7C7D : 75;
7C7E : 9b;
7C7F : 33;
7C80 : 8c;
7C81 : cc;
7C82 : b1;
7C83 : 8c;
7C84 : cc;
7C85 : 66;
7C86 : 4c;
7C87 : ca;
7C88 : 99;
7C89 : 99;
7C8A : 96;
7C8B : 66;
7C8C : 66;
7C8D : 66;
7C8E : 6c;
7C8F : 9c;
7C90 : cc;
7C91 : cc;
7C92 : e6;
7C93 : ce;
7C94 : 73;
7C95 : 32;
7C96 : 52;
7C97 : 63;
7C98 : 4e;
7C99 : 66;
7C9A : b3;
7C9B : b7;
7C9C : 5c;
7C9D : cc;
7C9E : c6;
7C9F : 18;
7CA0 : a2;
7CA1 : 52;
7CA2 : 99;
7CA3 : cd;
7CA4 : 5a;
7CA5 : e7;
7CA6 : 6d;
7CA7 : 98;
7CA8 : c9;
7CA9 : 93;
7CAA : 26;
7CAB : 6b;
7CAC : 36;
7CAD : 63;
7CAE : 18;
7CAF : 92;
7CB0 : 28;
7CB1 : 8a;
7CB2 : 66;
7CB3 : 4c;
7CB4 : ca;
7CB5 : 73;
7CB6 : 39;
7CB7 : d7;
7CB8 : 3d;
7CB9 : 75;
7CBA : b6;
7CBB : 73;
7CBC : 33;
7CBD : 36;
7CBE : 32;
7CBF : 98;
7CC0 : cc;
7CC1 : 66;
7CC2 : 66;
7CC3 : 65;
7CC4 : 33;
7CC5 : 32;
7CC6 : 99;
7CC7 : 33;
7CC8 : 33;
7CC9 : 33;
7CCA : 33;
7CCB : 99;
7CCC : 9c;
7CCD : cc;
7CCE : d9;
7CCF : 66;
7CD0 : d6;
7CD1 : cc;
7CD2 : c9;
7CD3 : 8c;
7CD4 : a6;
7CD5 : 66;
7CD6 : 6b;
7CD7 : 35;
7CD8 : 9b;
7CD9 : 35;
7CDA : 9d;
7CDB : 63;
7CDC : 32;
7CDD : 95;
7CDE : 33;
7CDF : 33;
7CE0 : 33;
7CE1 : 33;
7CE2 : 32;
7CE3 : 66;
7CE4 : 53;
7CE5 : 4c;
7CE6 : a9;
7CE7 : 99;
7CE8 : 99;
7CE9 : 99;
7CEA : 8c;
7CEB : 4a;
7CEC : 63;
7CED : 35;
7CEE : 9b;
7CEF : 39;
7CF0 : cc;
7CF1 : c6;
7CF2 : 63;
7CF3 : 32;
7CF4 : 66;
7CF5 : 66;
7CF6 : 59;
7CF7 : 99;
7CF8 : 9a;
7CF9 : 73;
7CFA : 9d;
7CFB : 66;
7CFC : 67;
7CFD : 39;
7CFE : ce;
7CFF : 73;
7D00 : 32;
7D01 : 63;
7D02 : 19;
7D03 : 99;
7D04 : 9b;
7D05 : 35;
7D06 : 9a;
7D07 : d9;
7D08 : cc;
7D09 : c6;
7D0A : 14;
7D0B : 8a;
7D0C : 28;
7D0D : c5;
7D0E : 26;
7D0F : 33;
7D10 : 19;
7D11 : 99;
7D12 : 9b;
7D13 : 33;
7D14 : 59;
7D15 : b3;
7D16 : ac;
7D17 : e6;
7D18 : ce;
7D19 : 67;
7D1A : 33;
7D1B : 99;
7D1C : b3;
7D1D : 39;
7D1E : 99;
7D1F : 99;
7D20 : 99;
7D21 : 99;
7D22 : 94;
7D23 : c5;
7D24 : 31;
7D25 : ac;
7D26 : ce;
7D27 : 6c;
7D28 : ce;
7D29 : 66;
7D2A : 33;
7D2B : 19;
7D2C : 94;
7D2D : c9;
7D2E : 8c;
7D2F : 65;
7D30 : 29;
7D31 : 8c;
7D32 : c6;
7D33 : 66;
7D34 : 73;
7D35 : 66;
7D36 : 65;
7D37 : 25;
7D38 : 33;
7D39 : 33;
7D3A : 39;
7D3B : ad;
7D3C : d6;
7D3D : d6;
7D3E : b3;
7D3F : 59;
7D40 : 99;
7D41 : 99;
7D42 : 9b;
7D43 : 33;
7D44 : 33;
7D45 : 39;
7D46 : 9c;
7D47 : e6;
7D48 : c9;
7D49 : 9a;
7D4A : 66;
7D4B : 66;
7D4C : 26;
7D4D : 32;
7D4E : b2;
7D4F : 66;
7D50 : 9c;
7D51 : cc;
7D52 : cc;
7D53 : cc;
7D54 : c9;
7D55 : 93;
7D56 : 29;
7D57 : 8c;
7D58 : a6;
7D59 : 66;
7D5A : 62;
7D5B : 51;
7D5C : 84;
7D5D : 94;
7D5E : a6;
7D5F : 66;
7D60 : ce;
7D61 : 75;
7D62 : b3;
7D63 : 9e;
7D64 : 73;
7D65 : 9c;
7D66 : e7;
7D67 : 33;
7D68 : 99;
7D69 : ac;
7D6A : cb;
7D6B : 33;
7D6C : 33;
7D6D : 33;
7D6E : 33;
7D6F : 33;
7D70 : 33;
7D71 : 26;
7D72 : 66;
7D73 : 59;
7D74 : 99;
7D75 : 8c;
7D76 : cc;
7D77 : c9;
7D78 : 99;
7D79 : 99;
7D7A : 99;
7D7B : 99;
7D7C : 99;
7D7D : 99;
7D7E : 9a;
7D7F : b3;
7D80 : 33;
7D81 : 33;
7D82 : 33;
7D83 : 33;
7D84 : 33;
7D85 : 66;
7D86 : 66;
7D87 : 64;
7D88 : a6;
7D89 : 33;
7D8A : 33;
7D8B : 33;
7D8C : 26;
7D8D : 55;
7D8E : 33;
7D8F : 33;
7D90 : 9c;
7D91 : e6;
7D92 : b3;
7D93 : 9a;
7D94 : ac;
7D95 : cc;
7D96 : c6;
7D97 : 66;
7D98 : 66;
7D99 : 69;
7D9A : 99;
7D9B : 99;
7D9C : 99;
7D9D : 98;
7D9E : cc;
7D9F : c6;
7DA0 : 63;
7DA1 : 19;
7DA2 : 99;
7DA3 : 99;
7DA4 : 4c;
7DA5 : cc;
7DA6 : ca;
7DA7 : 99;
7DA8 : 99;
7DA9 : 9c;
7DAA : cd;
7DAB : 54;
7DAC : cc;
7DAD : cc;
7DAE : cc;
7DAF : e6;
7DB0 : 73;
7DB1 : 39;
7DB2 : ac;
7DB3 : e6;
7DB4 : 66;
7DB5 : 66;
7DB6 : 53;
7DB7 : 29;
7DB8 : 99;
7DB9 : 4c;
7DBA : cc;
7DBB : cc;
7DBC : ce;
7DBD : 66;
7DBE : 73;
7DBF : 35;
7DC0 : 99;
7DC1 : cc;
7DC2 : cc;
7DC3 : ce;
7DC4 : 67;
7DC5 : 33;
7DC6 : 19;
7DC7 : 92;
7DC8 : a4;
7DC9 : cc;
7DCA : 6c;
7DCB : ce;
7DCC : 73;
7DCD : 59;
7DCE : 31;
7DCF : 88;
7DD0 : a4;
7DD1 : 65;
7DD2 : 33;
7DD3 : 35;
7DD4 : 9b;
7DD5 : 33;
7DD6 : 32;
7DD7 : 6b;
7DD8 : 33;
7DD9 : 31;
7DDA : 93;
7DDB : 26;
7DDC : b3;
7DDD : 36;
7DDE : 67;
7DDF : 3b;
7DE0 : 35;
7DE1 : 99;
7DE2 : 98;
7DE3 : cc;
7DE4 : a6;
7DE5 : 55;
7DE6 : 99;
7DE7 : cd;
7DE8 : 6b;
7DE9 : 59;
7DEA : cc;
7DEB : cd;
7DEC : 4e;
7DED : 66;
7DEE : 63;
7DEF : 31;
7DF0 : 99;
7DF1 : ac;
7DF2 : cc;
7DF3 : e6;
7DF4 : 66;
7DF5 : 73;
7DF6 : 33;
7DF7 : 31;
7DF8 : 99;
7DF9 : 4c;
7DFA : a6;
7DFB : 32;
7DFC : 99;
7DFD : 4c;
7DFE : 99;
7DFF : 8c;
7E00 : e5;
7E01 : 4c;
7E02 : c9;
7E03 : 8c;
7E04 : cc;
7E05 : cd;
7E06 : 59;
7E07 : 99;
7E08 : 99;
7E09 : 99;
7E0A : cc;
7E0B : e6;
7E0C : 73;
7E0D : 39;
7E0E : 9c;
7E0F : e7;
7E10 : 33;
7E11 : 99;
7E12 : 4c;
7E13 : 99;
7E14 : 98;
7E15 : cc;
7E16 : 99;
7E17 : 33;
7E18 : 33;
7E19 : 56;
7E1A : 67;
7E1B : 33;
7E1C : 59;
7E1D : 9b;
7E1E : 31;
7E1F : a9;
7E20 : 99;
7E21 : 94;
7E22 : cc;
7E23 : cc;
7E24 : 66;
7E25 : 66;
7E26 : 53;
7E27 : 2a;
7E28 : 66;
7E29 : 4d;
7E2A : 33;
7E2B : 35;
7E2C : 59;
7E2D : 4c;
7E2E : cc;
7E2F : cc;
7E30 : d9;
7E31 : 99;
7E32 : 9a;
7E33 : 67;
7E34 : 36;
7E35 : 6c;
7E36 : cc;
7E37 : cc;
7E38 : ca;
7E39 : 65;
7E3A : 4c;
7E3B : cc;
7E3C : cc;
7E3D : cc;
7E3E : cd;
7E3F : 99;
7E40 : ac;
7E41 : d9;
7E42 : 9b;
7E43 : 33;
7E44 : 39;
7E45 : 99;
7E46 : 9b;
7E47 : 2a;
7E48 : 66;
7E49 : 54;
7E4A : cc;
7E4B : c6;
7E4C : 67;
7E4D : 33;
7E4E : 33;
7E4F : 33;
7E50 : 33;
7E51 : 19;
7E52 : 4c;
7E53 : 99;
7E54 : 4c;
7E55 : 94;
7E56 : c6;
7E57 : 64;
7E58 : cc;
7E59 : 66;
7E5A : 66;
7E5B : 55;
7E5C : 66;
7E5D : 35;
7E5E : 99;
7E5F : 9a;
7E60 : cc;
7E61 : e7;
7E62 : 36;
7E63 : 67;
7E64 : 35;
7E65 : 66;
7E66 : 6b;
7E67 : 33;
7E68 : 66;
7E69 : 73;
7E6A : 5a;
7E6B : 72;
7E6C : 66;
7E6D : 59;
7E6E : 99;
7E6F : 9c;
7E70 : e6;
7E71 : 63;
7E72 : 31;
7E73 : 8c;
7E74 : c6;
7E75 : 33;
7E76 : 29;
7E77 : 99;
7E78 : 99;
7E79 : 54;
7E7A : cc;
7E7B : cc;
7E7C : d9;
7E7D : 99;
7E7E : 99;
7E7F : 99;
7E80 : 99;
7E81 : 9a;
7E82 : 72;
7E83 : cc;
7E84 : cc;
7E85 : cc;
7E86 : a9;
7E87 : 9b;
7E88 : 26;
7E89 : 63;
7E8A : 14;
7E8B : c6;
7E8C : 63;
7E8D : 33;
7E8E : 33;
7E8F : 33;
7E90 : 33;
7E91 : 99;
7E92 : 9c;
7E93 : d3;
7E94 : 33;
7E95 : 19;
7E96 : 93;
7E97 : 9a;
7E98 : b3;
7E99 : 59;
7E9A : 99;
7E9B : 99;
7E9C : 9c;
7E9D : ce;
7E9E : 66;
7E9F : 67;
7EA0 : 33;
7EA1 : 59;
7EA2 : 9c;
7EA3 : cc;
7EA4 : ce;
7EA5 : 66;
7EA6 : 66;
7EA7 : 6b;
7EA8 : 33;
7EA9 : 29;
7EAA : 94;
7EAB : cc;
7EAC : cc;
7EAD : d6;
7EAE : 66;
7EAF : 66;
7EB0 : 66;
7EB1 : 63;
7EB2 : 33;
7EB3 : 19;
7EB4 : 32;
7EB5 : 99;
7EB6 : 4c;
7EB7 : 66;
7EB8 : 32;
7EB9 : 99;
7EBA : 99;
7EBB : 8c;
7EBC : cc;
7EBD : cc;
7EBE : cc;
7EBF : cc;
7EC0 : cd;
7EC1 : 99;
7EC2 : ac;
7EC3 : e6;
7EC4 : cc;
7EC5 : cc;
7EC6 : aa;
7EC7 : cc;
7EC8 : e6;
7EC9 : 6c;
7ECA : ce;
7ECB : 67;
7ECC : 34;
7ECD : e5;
7ECE : 99;
7ECF : 99;
7ED0 : 99;
7ED1 : 99;
7ED2 : 99;
7ED3 : 99;
7ED4 : 93;
7ED5 : 33;
7ED6 : 33;
7ED7 : 33;
7ED8 : 26;
7ED9 : 31;
7EDA : 8c;
7EDB : c6;
7EDC : 66;
7EDD : 66;
7EDE : 73;
7EDF : 33;
7EE0 : 33;
7EE1 : 29;
7EE2 : 99;
7EE3 : 99;
7EE4 : 99;
7EE5 : cb;
7EE6 : 33;
7EE7 : 33;
7EE8 : 33;
7EE9 : 66;
7EEA : 66;
7EEB : 65;
7EEC : 29;
7EED : 96;
7EEE : 33;
7EEF : 99;
7EF0 : 99;
7EF1 : 9c;
7EF2 : cc;
7EF3 : e6;
7EF4 : 66;
7EF5 : 66;
7EF6 : 66;
7EF7 : 66;
7EF8 : 66;
7EF9 : cc;
7EFA : cc;
7EFB : cc;
7EFC : 66;
7EFD : 4c;
7EFE : c9;
7EFF : 99;
7F00 : 99;
7F01 : 66;
7F02 : 66;
7F03 : 67;
7F04 : 33;
7F05 : 66;
7F06 : 66;
7F07 : cc;
7F08 : cc;
7F09 : e6;
7F0A : 66;
7F0B : 71;
7F0C : aa;
7F0D : 66;
7F0E : 65;
7F0F : 8e;
7F10 : 67;
7F11 : 33;
7F12 : 94;
7F13 : cc;
7F14 : 66;
7F15 : 65;
7F16 : 99;
7F17 : 4c;
7F18 : cc;
7F19 : a6;
7F1A : 65;
7F1B : 4c;
7F1C : cc;
7F1D : cc;
7F1E : cc;
7F1F : 98;
7F20 : c6;
7F21 : 4c;
7F22 : d3;
7F23 : 95;
7F24 : 99;
7F25 : 99;
7F26 : 9c;
7F27 : cd;
7F28 : 59;
7F29 : ac;
7F2A : cd;
7F2B : 99;
7F2C : 99;
7F2D : b3;
7F2E : 39;
7F2F : ab;
7F30 : 32;
7F31 : 66;
7F32 : 33;
7F33 : 19;
7F34 : a6;
7F35 : 73;
7F36 : 2c;
7F37 : cc;
7F38 : ce;
7F39 : 66;
7F3A : 66;
7F3B : 67;
7F3C : 33;
7F3D : 33;
7F3E : 33;
7F3F : 26;
7F40 : 53;
7F41 : 18;
7F42 : c9;
7F43 : 99;
7F44 : 99;
7F45 : b3;
7F46 : 33;
7F47 : 33;
7F48 : 33;
7F49 : 33;
7F4A : 33;
7F4B : 33;
7F4C : 2a;
7F4D : cc;
7F4E : cc;
7F4F : cc;
7F50 : cc;
7F51 : d9;
7F52 : 99;
7F53 : 99;
7F54 : 65;
7F55 : 35;
7F56 : 99;
7F57 : ac;
7F58 : cc;
7F59 : e6;
7F5A : 66;
7F5B : 99;
7F5C : 99;
7F5D : 99;
7F5E : 98;
7F5F : c9;
7F60 : 98;
7F61 : ca;
7F62 : 66;
7F63 : 66;
7F64 : 53;
7F65 : 53;
7F66 : 36;
7F67 : 55;
7F68 : 99;
7F69 : 99;
7F6A : b3;
7F6B : 33;
7F6C : 33;
7F6D : 1a;
7F6E : 66;
7F6F : 66;
7F70 : 66;
7F71 : 66;
7F72 : 66;
7F73 : 6b;
7F74 : 35;
7F75 : 9b;
7F76 : 33;
7F77 : 39;
7F78 : 99;
7F79 : b3;
7F7A : 59;
7F7B : 99;
7F7C : 9a;
7F7D : cc;
7F7E : a9;
7F7F : cc;
7F80 : 66;
7F81 : 64;
7F82 : cc;
7F83 : a6;
7F84 : 65;
7F85 : 33;
7F86 : 26;
7F87 : 66;
7F88 : 4c;
7F89 : c6;
7F8A : 66;
7F8B : 64;
7F8C : cc;
7F8D : cc;
7F8E : cc;
7F8F : cc;
7F90 : cc;
7F91 : cc;
7F92 : cc;
7F93 : cd;
7F94 : 99;
7F95 : 99;
7F96 : 99;
7F97 : b3;
7F98 : 33;
7F99 : 33;
7F9A : 39;
7F9B : 99;
7F9C : 99;
7F9D : b3;
7F9E : 33;
7F9F : 33;
7FA0 : 39;
7FA1 : 99;
7FA2 : 9a;
7FA3 : 66;
7FA4 : 53;
7FA5 : 31;
7FA6 : 99;
7FA7 : 99;
7FA8 : 39;
7FA9 : 98;
7FAA : cc;
7FAB : cc;
7FAC : cc;
7FAD : cc;
7FAE : ce;
7FAF : 66;
7FB0 : 67;
7FB1 : 35;
7FB2 : 99;
7FB3 : 93;
7FB4 : 32;
7FB5 : 99;
7FB6 : 99;
7FB7 : 99;
7FB8 : 9a;
7FB9 : cc;
7FBA : cc;
7FBB : cc;
7FBC : cc;
7FBD : cc;
7FBE : cc;
7FBF : b1;
7FC0 : 98;
7FC1 : cc;
7FC2 : cc;
7FC3 : 66;
7FC4 : 66;
7FC5 : 66;
7FC6 : 66;
7FC7 : 66;
7FC8 : 66;
7FC9 : 66;
7FCA : 66;
7FCB : 66;
7FCC : 69;
7FCD : a7;
7FCE : 33;
7FCF : 33;
7FD0 : 33;
7FD1 : 39;
7FD2 : 99;
7FD3 : 99;
7FD4 : cc;
7FD5 : cc;
7FD6 : d3;
7FD7 : 54;
7FD8 : cc;
7FD9 : cb;
7FDA : 19;
7FDB : 99;
7FDC : 99;
7FDD : 99;
7FDE : 99;
7FDF : 99;
7FE0 : ab;
7FE1 : 33;
7FE2 : 33;
7FE3 : 33;
7FE4 : 33;
7FE5 : 33;
7FE6 : 39;
7FE7 : 99;
7FE8 : 00;
7FE9 : 00;
7FEA : 00;
7FEB : 00;
7FEC : 00;
7FED : 00;
7FEE : 00;
7FEF : 00;
7FF0 : ff;
7FF1 : ff;
7FF2 : ff;
7FF3 : ff;
7FF4 : ff;
7FF5 : ff;
7FF6 : ff;
7FF7 : ff;
7FF8 : ff;
7FF9 : 40;
7FFA : 1a;
7FFB : c0;
7FFC : 00;
7FFD : c0;
7FFE : f9;
7FFF : ff;
END;