DEPTH=32768;
WIDTH=8;
ADDRESS_RADIX=HEX;
DATA_RADIX=HEX;
CONTENT
BEGIN
   0 : 20;
   1 : 70;
   2 : 06;
   3 : 00;
   4 : 20;
   5 : 64;
   6 : 06;
   7 : 00;
   8 : 20;
   9 : 78;
   A : 06;
   B : 00;
   C : 20;
   D : b7;
   E : 04;
   F : 00;
  10 : 20;
  11 : bc;
  12 : 01;
  13 : 00;
  14 : 01;
  15 : 08;
  16 : 02;
  17 : 08;
  18 : 02;
  19 : 00;
  1A : 05;
  1B : 01;
  1C : 00;
  1D : 02;
  1E : 01;
  1F : 01;
  20 : 01;
  21 : 05;
  22 : 01;
  23 : 05;
  24 : 01;
  25 : 02;
  26 : 01;
  27 : 02;
  28 : db;
  29 : 60;
  2A : e2;
  2B : 55;
  2C : 14;
  2D : 20;
  2E : 01;
  2F : f9;
  30 : a0;
  31 : e0;
  32 : 30;
  33 : 10;
  34 : 10;
  35 : 01;
  36 : 50;
  37 : 01;
  38 : 30;
  39 : d0;
  3A : ff;
  3B : ff;
  3C : 3e;
  3D : c6;
  3E : 57;
  3F : c6;
  40 : e1;
  41 : c6;
  42 : 60;
  43 : c7;
  44 : 7d;
  45 : c7;
  46 : e4;
  47 : c6;
  48 : f1;
  49 : c6;
  4A : 53;
  4B : c7;
  4C : 08;
  4D : c7;
  4E : 19;
  4F : c7;
  50 : 1c;
  51 : c7;
  52 : 35;
  53 : c7;
  54 : 4e;
  55 : c7;
  56 : 8c;
  57 : c0;
  58 : cf;
  59 : c0;
  5A : 61;
  5B : c1;
  5C : 60;
  5D : 04;
  5E : c3;
  5F : c0;
  60 : df;
  61 : c0;
  62 : 6e;
  63 : c1;
  64 : c4;
  65 : c2;
  66 : c8;
  67 : c2;
  68 : 86;
  69 : c1;
  6A : b0;
  6B : c1;
  6C : 92;
  6D : c1;
  6E : cf;
  6F : c1;
  70 : d5;
  71 : c1;
  72 : db;
  73 : c1;
  74 : e1;
  75 : c1;
  76 : 9e;
  77 : c1;
  78 : e7;
  79 : c1;
  7A : 0c;
  7B : c6;
  7C : 70;
  7D : c6;
  7E : 89;
  7F : c6;
  80 : 25;
  81 : c6;
  82 : a2;
  83 : c6;
  84 : cc;
  85 : 00;
  86 : 8e;
  87 : c1;
  88 : 96;
  89 : c1;
  8A : a6;
  8B : c6;
  8C : 00;
  8D : d8;
  8E : 00;
  8F : 00;
  90 : 01;
  91 : 00;
  92 : 80;
  93 : d7;
  94 : 04;
  95 : 18;
  96 : 06;
  97 : fe;
  98 : c8;
  99 : bc;
  9A : 04;
  9B : e8;
  9C : 09;
  9D : fe;
  9E : 20;
  9F : 9e;
  A0 : 04;
  A1 : 18;
  A2 : 09;
  A3 : fe;
  A4 : c8;
  A5 : 80;
  A6 : 04;
  A7 : e8;
  A8 : 09;
  A9 : fe;
  AA : 20;
  AB : 62;
  AC : 04;
  AD : 18;
  AE : 09;
  AF : fe;
  B0 : c8;
  B1 : 44;
  B2 : 04;
  B3 : e8;
  B4 : 06;
  B5 : fe;
  B6 : 80;
  B7 : 28;
  B8 : 04;
  B9 : 00;
  BA : 01;
  BB : fe;
  BC : bc;
  BD : 9e;
  BE : 80;
  BF : 62;
  C0 : 44;
  C1 : 28;
  C2 : ff;
  C3 : 00;
  C4 : 00;
  C5 : 80;
  C6 : 00;
  C7 : 00;
  C8 : 00;
  C9 : 18;
  CA : 00;
  CB : 00;
  CC : 00;
  CD : 10;
  CE : 00;
  CF : e0;
  D0 : bc;
  D1 : 00;
  D2 : 10;
  D3 : 9e;
  D4 : 00;
  D5 : e0;
  D6 : 80;
  D7 : 00;
  D8 : 10;
  D9 : 62;
  DA : 00;
  DB : e0;
  DC : 44;
  DD : 00;
  DE : fe;
  DF : 00;
  E0 : 00;
  E1 : 10;
  E2 : 03;
  E3 : c8;
  E4 : bc;
  E5 : 08;
  E6 : c8;
  E7 : 80;
  E8 : 04;
  E9 : b8;
  EA : 74;
  EB : 10;
  EC : 68;
  ED : 58;
  EE : 14;
  EF : c8;
  F0 : 44;
  F1 : 04;
  F2 : 60;
  F3 : cf;
  F4 : 0c;
  F5 : 70;
  F6 : 9b;
  F7 : 00;
  F8 : 30;
  F9 : 9e;
  FA : 04;
  FB : 50;
  FC : 85;
  FD : 08;
  FE : 80;
  FF : 7d;
 100 : 00;
 101 : 30;
 102 : 62;
 103 : 04;
 104 : 58;
 105 : 60;
 106 : 00;
 107 : 90;
 108 : 28;
 109 : 18;
 10A : fe;
 10B : 00;
 10C : 00;
 10D : 08;
 10E : 1d;
 10F : 00;
 110 : 00;
 111 : 08;
 112 : 17;
 113 : 00;
 114 : 00;
 115 : 08;
 116 : 18;
 117 : 00;
 118 : 00;
 119 : 08;
 11A : 09;
 11B : 00;
 11C : 00;
 11D : 08;
 11E : 0b;
 11F : 00;
 120 : 00;
 121 : 08;
 122 : 07;
 123 : 00;
 124 : 00;
 125 : 08;
 126 : 19;
 127 : c8;
 128 : bc;
 129 : 00;
 12A : 70;
 12B : 9b;
 12C : 00;
 12D : 30;
 12E : 9e;
 12F : 00;
 130 : c8;
 131 : 80;
 132 : 00;
 133 : 80;
 134 : 7d;
 135 : 00;
 136 : 30;
 137 : 62;
 138 : 00;
 139 : 58;
 13A : 60;
 13B : 00;
 13C : c8;
 13D : 44;
 13E : 00;
 13F : 90;
 140 : 28;
 141 : 00;
 142 : fe;
 143 : 00;
 144 : 00;
 145 : 08;
 146 : 0d;
 147 : 24;
 148 : 24;
 149 : 54;
 14A : 54;
 14B : 60;
 14C : 60;
 14D : 64;
 14E : 64;
 14F : 60;
 150 : 60;
 151 : 24;
 152 : 24;
 153 : 68;
 154 : 68;
 155 : 68;
 156 : 68;
 157 : 68;
 158 : 68;
 159 : 24;
 15A : 24;
 15B : 24;
 15C : 54;
 15D : 54;
 15E : 54;
 15F : 00;
 160 : 00;
 161 : 60;
 162 : b7;
 163 : 00;
 164 : 50;
 165 : 7b;
 166 : 00;
 167 : b8;
 168 : 5c;
 169 : 00;
 16A : 68;
 16B : 40;
 16C : 00;
 16D : fe;
 16E : 00;
 16F : 00;
 170 : 08;
 171 : 18;
 172 : ca;
 173 : a7;
 174 : 8e;
 175 : 6b;
 176 : 51;
 177 : 5c;
 178 : 2c;
 179 : 4c;
 17A : 2c;
 17B : 64;
 17C : c6;
 17D : aa;
 17E : 8c;
 17F : 6d;
 180 : 4d;
 181 : c4;
 182 : 6c;
 183 : 7c;
 184 : 54;
 185 : c4;
 186 : 08;
 187 : 11;
 188 : 0a;
 189 : 11;
 18A : 08;
 18B : 10;
 18C : 0a;
 18D : 11;
 18E : 08;
 18F : 0f;
 190 : 0a;
 191 : 11;
 192 : 05;
 193 : 01;
 194 : 0c;
 195 : 09;
 196 : 05;
 197 : 05;
 198 : 0a;
 199 : 0a;
 19A : 08;
 19B : 10;
 19C : 08;
 19D : 10;
 19E : 04;
 19F : 04;
 1A0 : 0c;
 1A1 : 0d;
 1A2 : 0c;
 1A3 : 14;
 1A4 : 1c;
 1A5 : 10;
 1A6 : 18;
 1A7 : 20;
 1A8 : 03;
 1A9 : 05;
 1AA : 02;
 1AB : 03;
 1AC : 00;
 1AD : 00;
 1AE : 03;
 1AF : 04;
 1B0 : 00;
 1B1 : 00;
 1B2 : 08;
 1B3 : 08;
 1B4 : 10;
 1B5 : e0;
 1B6 : 10;
 1B7 : e0;
 1B8 : 0c;
 1B9 : e0;
 1BA : 08;
 1BB : e8;
 1BC : 01;
 1BD : 02;
 1BE : 04;
 1BF : 08;
 1C0 : 10;
 1C1 : 20;
 1C2 : 40;
 1C3 : 80;
 1C4 : 13;
 1C5 : 30;
 1C6 : 48;
 1C7 : 60;
 1C8 : 78;
 1C9 : 90;
 1CA : a8;
 1CB : c0;
 1CC : e0;
 1CD : 13;
 1CE : db;
 1CF : 4c;
 1D0 : 6a;
 1D1 : 88;
 1D2 : a6;
 1D3 : c5;
 1D4 : fe;
 1D5 : 53;
 1D6 : 6b;
 1D7 : 8f;
 1D8 : a7;
 1D9 : ca;
 1DA : fe;
 1DB : 52;
 1DC : 6e;
 1DD : 8c;
 1DE : ac;
 1DF : c5;
 1E0 : fe;
 1E1 : 52;
 1E2 : 6c;
 1E3 : 8e;
 1E4 : a8;
 1E5 : ca;
 1E6 : fe;
 1E7 : 00;
 1E8 : 06;
 1E9 : 08;
 1EA : 08;
 1EB : 19;
 1EC : 30;
 1ED : 34;
 1EE : 30;
 1EF : 34;
 1F0 : 30;
 1F1 : 34;
 1F2 : 38;
 1F3 : 3c;
 1F4 : 3c;
 1F5 : 3c;
 1F6 : 02;
 1F7 : 04;
 1F8 : 02;
 1F9 : 04;
 1FA : 07;
 1FB : 05;
 1FC : 07;
 1FD : 09;
 1FE : 03;
 1FF : 00;
 200 : 00;
 201 : 04;
 202 : 08;
 203 : 01;
 204 : 02;
 205 : 03;
 206 : 04;
 207 : 50;
 208 : 60;
 209 : 70;
 20A : 80;
 20B : 90;
 20C : 0e;
 20D : d8;
 20E : 18;
 20F : 0e;
 210 : c8;
 211 : 04;
 212 : 86;
 213 : c8;
 214 : 04;
 215 : a6;
 216 : c0;
 217 : 00;
 218 : be;
 219 : b8;
 21A : 00;
 21B : d6;
 21C : b0;
 21D : 04;
 21E : 4e;
 21F : b0;
 220 : 04;
 221 : 0e;
 222 : a0;
 223 : 04;
 224 : de;
 225 : a0;
 226 : 00;
 227 : c6;
 228 : 98;
 229 : 00;
 22A : ae;
 22B : 90;
 22C : 00;
 22D : 96;
 22E : 88;
 22F : 14;
 230 : c6;
 231 : 78;
 232 : 0c;
 233 : 0e;
 234 : 70;
 235 : 04;
 236 : 46;
 237 : 70;
 238 : 08;
 239 : 8e;
 23A : 68;
 23B : 04;
 23C : ae;
 23D : 60;
 23E : 00;
 23F : c6;
 240 : 58;
 241 : 00;
 242 : de;
 243 : 50;
 244 : 00;
 245 : 66;
 246 : 40;
 247 : 10;
 248 : 86;
 249 : 28;
 24A : 00;
 24B : fe;
 24C : b0;
 24D : 78;
 24E : 60;
 24F : 40;
 250 : 28;
 251 : ff;
 252 : 00;
 253 : 00;
 254 : 14;
 255 : 00;
 256 : 00;
 257 : 00;
 258 : 1c;
 259 : 00;
 25A : 00;
 25B : 00;
 25C : 24;
 25D : 00;
 25E : 00;
 25F : 00;
 260 : 2c;
 261 : 00;
 262 : 00;
 263 : 00;
 264 : 54;
 265 : 00;
 266 : 00;
 267 : 00;
 268 : 12;
 269 : 00;
 26A : 00;
 26B : 00;
 26C : e4;
 26D : 00;
 26E : 18;
 26F : a0;
 270 : 0c;
 271 : 20;
 272 : 70;
 273 : 10;
 274 : 50;
 275 : 70;
 276 : 14;
 277 : 60;
 278 : 70;
 279 : 14;
 27A : 98;
 27B : 68;
 27C : 08;
 27D : c8;
 27E : 78;
 27F : 08;
 280 : e0;
 281 : a0;
 282 : 00;
 283 : e0;
 284 : 50;
 285 : 0c;
 286 : b0;
 287 : 40;
 288 : 08;
 289 : 90;
 28A : 28;
 28B : 04;
 28C : fe;
 28D : 00;
 28E : 00;
 28F : 08;
 290 : 10;
 291 : 00;
 292 : 00;
 293 : 08;
 294 : 18;
 295 : 00;
 296 : 00;
 297 : 08;
 298 : 20;
 299 : 00;
 29A : 00;
 29B : 08;
 29C : 28;
 29D : 00;
 29E : 00;
 29F : 08;
 2A0 : 30;
 2A1 : 00;
 2A2 : 00;
 2A3 : 08;
 2A4 : 40;
 2A5 : 18;
 2A6 : a0;
 2A7 : 00;
 2A8 : 20;
 2A9 : 70;
 2AA : 00;
 2AB : 50;
 2AC : 70;
 2AD : 00;
 2AE : 60;
 2AF : 70;
 2B0 : 00;
 2B1 : 98;
 2B2 : 68;
 2B3 : 00;
 2B4 : c8;
 2B5 : 78;
 2B6 : 00;
 2B7 : e0;
 2B8 : a0;
 2B9 : 00;
 2BA : e0;
 2BB : 50;
 2BC : 00;
 2BD : b0;
 2BE : 40;
 2BF : 00;
 2C0 : 90;
 2C1 : 28;
 2C2 : 00;
 2C3 : fe;
 2C4 : 04;
 2C5 : 01;
 2C6 : 1b;
 2C7 : 0e;
 2C8 : 00;
 2C9 : 01;
 2CA : 12;
 2CB : 01;
 2CC : 30;
 2CD : 38;
 2CE : 40;
 2CF : 48;
 2D0 : 50;
 2D1 : 58;
 2D2 : 00;
 2D3 : 00;
 2D4 : 09;
 2D5 : 15;
 2D6 : 18;
 2D7 : 00;
 2D8 : 4c;
 2D9 : 5f;
 2DA : 03;
 2DB : 5c;
 2DC : 5f;
 2DD : 03;
 2DE : c4;
 2DF : 67;
 2E0 : 03;
 2E1 : 4c;
 2E2 : 9f;
 2E3 : 13;
 2E4 : 5c;
 2E5 : 9f;
 2E6 : 13;
 2E7 : c4;
 2E8 : 87;
 2E9 : 13;
 2EA : dc;
 2EB : 3f;
 2EC : 03;
 2ED : dc;
 2EE : 67;
 2EF : 13;
 2F0 : 06;
 2F1 : d8;
 2F2 : 00;
 2F3 : 06;
 2F4 : b8;
 2F5 : 00;
 2F6 : 16;
 2F7 : 90;
 2F8 : 04;
 2F9 : 1e;
 2FA : 68;
 2FB : 08;
 2FC : 26;
 2FD : 40;
 2FE : 0c;
 2FF : fe;
 300 : b8;
 301 : 90;
 302 : 68;
 303 : 40;
 304 : 28;
 305 : ff;
 306 : 00;
 307 : 00;
 308 : f5;
 309 : 00;
 30A : 00;
 30B : 00;
 30C : d5;
 30D : 00;
 30E : 00;
 30F : 00;
 310 : c5;
 311 : 00;
 312 : 00;
 313 : 00;
 314 : b5;
 315 : 00;
 316 : 10;
 317 : b8;
 318 : 00;
 319 : 78;
 31A : b8;
 31B : 00;
 31C : e8;
 31D : b8;
 31E : 00;
 31F : 18;
 320 : 90;
 321 : 04;
 322 : 60;
 323 : 90;
 324 : 04;
 325 : 98;
 326 : 90;
 327 : 04;
 328 : e0;
 329 : 90;
 32A : 04;
 32B : 20;
 32C : 68;
 32D : 04;
 32E : 80;
 32F : 68;
 330 : 04;
 331 : d8;
 332 : 68;
 333 : 04;
 334 : 28;
 335 : 40;
 336 : 04;
 337 : 48;
 338 : 40;
 339 : 04;
 33A : b0;
 33B : 40;
 33C : 04;
 33D : d0;
 33E : 40;
 33F : 04;
 340 : fe;
 341 : 00;
 342 : 00;
 343 : 08;
 344 : 20;
 345 : 00;
 346 : 00;
 347 : 08;
 348 : 28;
 349 : 10;
 34A : b8;
 34B : 00;
 34C : 78;
 34D : b8;
 34E : 00;
 34F : e8;
 350 : b8;
 351 : 00;
 352 : 18;
 353 : 90;
 354 : 00;
 355 : 60;
 356 : 90;
 357 : 00;
 358 : 98;
 359 : 90;
 35A : 00;
 35B : e0;
 35C : 90;
 35D : 00;
 35E : 20;
 35F : 68;
 360 : 00;
 361 : 80;
 362 : 68;
 363 : 00;
 364 : d8;
 365 : 68;
 366 : 00;
 367 : 28;
 368 : 40;
 369 : 00;
 36A : 48;
 36B : 40;
 36C : 00;
 36D : b0;
 36E : 40;
 36F : 00;
 370 : d0;
 371 : 40;
 372 : 00;
 373 : fe;
 374 : 00;
 375 : 09;
 376 : 1e;
 377 : 33;
 378 : 48;
 379 : 54;
 37A : 0c;
 37B : a7;
 37C : 03;
 37D : 74;
 37E : a7;
 37F : 03;
 380 : e4;
 381 : a7;
 382 : 03;
 383 : 0c;
 384 : c7;
 385 : 13;
 386 : 74;
 387 : c7;
 388 : 13;
 389 : e4;
 38A : c7;
 38B : 13;
 38C : 14;
 38D : 7f;
 38E : 03;
 38F : 5c;
 390 : 7f;
 391 : 03;
 392 : 94;
 393 : 7f;
 394 : 03;
 395 : dc;
 396 : 7f;
 397 : 03;
 398 : 1c;
 399 : 57;
 39A : 03;
 39B : 7c;
 39C : 57;
 39D : 03;
 39E : d4;
 39F : 57;
 3A0 : 03;
 3A1 : 14;
 3A2 : a7;
 3A3 : 13;
 3A4 : 5c;
 3A5 : a7;
 3A6 : 13;
 3A7 : 94;
 3A8 : a7;
 3A9 : 13;
 3AA : dc;
 3AB : a7;
 3AC : 13;
 3AD : 24;
 3AE : 2f;
 3AF : 03;
 3B0 : 44;
 3B1 : 2f;
 3B2 : 03;
 3B3 : ac;
 3B4 : 2f;
 3B5 : 03;
 3B6 : cc;
 3B7 : 2f;
 3B8 : 03;
 3B9 : 1c;
 3BA : 7f;
 3BB : 13;
 3BC : 7c;
 3BD : 7f;
 3BE : 13;
 3BF : d4;
 3C0 : 7f;
 3C1 : 13;
 3C2 : 24;
 3C3 : 57;
 3C4 : 13;
 3C5 : 44;
 3C6 : 57;
 3C7 : 13;
 3C8 : ac;
 3C9 : 57;
 3CA : 13;
 3CB : cc;
 3CC : 57;
 3CD : 13;
 3CE : 08;
 3CF : c7;
 3D0 : 10;
 3D1 : a7;
 3D2 : 18;
 3D3 : 7f;
 3D4 : 20;
 3D5 : 57;
 3D6 : e8;
 3D7 : c7;
 3D8 : e0;
 3D9 : a7;
 3DA : d8;
 3DB : 7f;
 3DC : d0;
 3DD : 57;
 3DE : 34;
 3DF : ac;
 3E0 : 44;
 3E1 : bc;
 3E2 : 05;
 3E3 : 03;
 3E4 : 0d;
 3E5 : 0b;
 3E6 : d4;
 3E7 : 0c;
 3E8 : e4;
 3E9 : 0c;
 3EA : 5d;
 3EB : 4b;
 3EC : cd;
 3ED : c3;
 3EE : 5d;
 3EF : 43;
 3F0 : e5;
 3F1 : c3;
 3F2 : ed;
 3F3 : 03;
 3F4 : 24;
 3F5 : 49;
 3F6 : 77;
 3F7 : 77;
 3F8 : 77;
 3F9 : 77;
 3FA : ff;
 3FB : ff;
 3FC : 0b;
 3FD : 0c;
 3FE : 0d;
 3FF : 15;
 400 : 16;
 401 : 17;
 402 : 18;
 403 : 19;
 404 : 1a;
 405 : 1e;
 406 : 1f;
 407 : ff;
 408 : ff;
 409 : ff;
 40A : 01;
 40B : 01;
 40C : 01;
 40D : 01;
 40E : ff;
 40F : ff;
 410 : 01;
 411 : 01;
 412 : e4;
 413 : e3;
 414 : e2;
 415 : d8;
 416 : d7;
 417 : d6;
 418 : d5;
 419 : d4;
 41A : d3;
 41B : d0;
 41C : cf;
 41D : 48;
 41E : 84;
 41F : c0;
 420 : 50;
 421 : 8d;
 422 : c7;
 423 : 20;
 424 : c0;
 425 : 78;
 426 : 60;
 427 : 28;
 428 : 44;
 429 : 6b;
 42A : 20;
 42B : 33;
 42C : c4;
 42D : 37;
 42E : c4;
 42F : 3b;
 430 : c4;
 431 : 3f;
 432 : c4;
 433 : 00;
 434 : 00;
 435 : 10;
 436 : 08;
 437 : 00;
 438 : 00;
 439 : 10;
 43A : 08;
 43B : 00;
 43C : 00;
 43D : 60;
 43E : 10;
 43F : 00;
 440 : 00;
 441 : 2a;
 442 : 20;
 443 : b0;
 444 : a0;
 445 : 78;
 446 : 68;
 447 : 68;
 448 : 88;
 449 : 88;
 44A : 88;
 44B : 88;
 44C : 88;
 44D : 48;
 44E : 38;
 44F : 28;
 450 : 18;
 451 : 18;
 452 : bb;
 453 : bb;
 454 : 5e;
 455 : 2f;
 456 : 13;
 457 : 88;
 458 : 78;
 459 : 64;
 45A : 56;
 45B : 49;
 45C : 88;
 45D : 88;
 45E : 24;
 45F : 55;
 460 : 55;
 461 : 88;
 462 : 88;
 463 : 49;
 464 : 55;
 465 : 55;
 466 : 40;
 467 : 20;
 468 : 10;
 469 : 08;
 46A : 01;
 46B : 8c;
 46C : c0;
 46D : 0c;
 46E : c2;
 46F : 0c;
 470 : c2;
 471 : f0;
 472 : c2;
 473 : c3;
 474 : c0;
 475 : 0c;
 476 : c2;
 477 : 52;
 478 : c2;
 479 : 06;
 47A : c3;
 47B : e3;
 47C : c0;
 47D : 0c;
 47E : c2;
 47F : 6e;
 480 : c2;
 481 : 16;
 482 : c3;
 483 : 0b;
 484 : c1;
 485 : 0c;
 486 : c2;
 487 : 8d;
 488 : c2;
 489 : 41;
 48A : c3;
 48B : 27;
 48C : c1;
 48D : 0c;
 48E : c2;
 48F : a5;
 490 : c2;
 491 : 49;
 492 : c3;
 493 : bc;
 494 : c0;
 495 : 0c;
 496 : c2;
 497 : 4c;
 498 : c2;
 499 : 00;
 49A : c3;
 49B : 0c;
 49C : c2;
 49D : d2;
 49E : c2;
 49F : 74;
 4A0 : c3;
 4A1 : 0c;
 4A2 : c2;
 4A3 : d8;
 4A4 : c2;
 4A5 : 7a;
 4A6 : c3;
 4A7 : 5b;
 4A8 : f5;
 4A9 : d9;
 4AA : f8;
 4AB : cd;
 4AC : f7;
 4AD : 1c;
 4AE : f7;
 4AF : d9;
 4B0 : f8;
 4B1 : 1b;
 4B2 : fa;
 4B3 : 00;
 4B4 : 00;
 4B5 : 01;
 4B6 : 06;
 4B7 : e8;
 4B8 : 04;
 4B9 : 50;
 4BA : 18;
 4BB : d5;
 4BC : 12;
 4BD : e8;
 4BE : 00;
 4BF : 50;
 4C0 : 20;
 4C1 : db;
 4C2 : 22;
 4C3 : f0;
 4C4 : 00;
 4C5 : 00;
 4C6 : 00;
 4C7 : 03;
 4C8 : 2c;
 4C9 : 30;
 4CA : 04;
 4CB : 20;
 4CC : 7f;
 4CD : f6;
 4CE : 21;
 4CF : d0;
 4D0 : 00;
 4D1 : 20;
 4D2 : 46;
 4D3 : f6;
 4D4 : 21;
 4D5 : d8;
 4D6 : 00;
 4D7 : 00;
 4D8 : 00;
 4D9 : 01;
 4DA : 04;
 4DB : c0;
 4DC : 04;
 4DD : 00;
 4DE : 00;
 4DF : 00;
 4E0 : 04;
 4E1 : 00;
 4E2 : 04;
 4E3 : 30;
 4E4 : c7;
 4E5 : 04;
 4E6 : 22;
 4E7 : 00;
 4E8 : 00;
 4E9 : 00;
 4EA : 00;
 4EB : 02;
 4EC : 08;
 4ED : 10;
 4EE : 04;
 4EF : 00;
 4F0 : 00;
 4F1 : 02;
 4F2 : 02;
 4F3 : e0;
 4F4 : 04;
 4F5 : fe;
 4F6 : 00;
 4F7 : 00;
 4F8 : 01;
 4F9 : 06;
 4FA : e8;
 4FB : 04;
 4FC : 50;
 4FD : 18;
 4FE : d5;
 4FF : 12;
 500 : e8;
 501 : 00;
 502 : 50;
 503 : 20;
 504 : db;
 505 : 22;
 506 : f0;
 507 : 00;
 508 : 00;
 509 : 00;
 50A : 03;
 50B : 0c;
 50C : 30;
 50D : 04;
 50E : 30;
 50F : 78;
 510 : a0;
 511 : 12;
 512 : 30;
 513 : 00;
 514 : 30;
 515 : a8;
 516 : a0;
 517 : 12;
 518 : 38;
 519 : 00;
 51A : 30;
 51B : 49;
 51C : a0;
 51D : 12;
 51E : 40;
 51F : 00;
 520 : 70;
 521 : 70;
 522 : a0;
 523 : 12;
 524 : 48;
 525 : 00;
 526 : 70;
 527 : a0;
 528 : a0;
 529 : 12;
 52A : 50;
 52B : 00;
 52C : 70;
 52D : d7;
 52E : a0;
 52F : 12;
 530 : 58;
 531 : 00;
 532 : 00;
 533 : 00;
 534 : 23;
 535 : 02;
 536 : 40;
 537 : 04;
 538 : 00;
 539 : 00;
 53A : 23;
 53B : 02;
 53C : 58;
 53D : 04;
 53E : 00;
 53F : 00;
 540 : 00;
 541 : 04;
 542 : 00;
 543 : 04;
 544 : 10;
 545 : b7;
 546 : 04;
 547 : 22;
 548 : 00;
 549 : 00;
 54A : 00;
 54B : 00;
 54C : 02;
 54D : 08;
 54E : 10;
 54F : 04;
 550 : 4c;
 551 : 9f;
 552 : 98;
 553 : 22;
 554 : 10;
 555 : 00;
 556 : cc;
 557 : 67;
 558 : 98;
 559 : 22;
 55A : 20;
 55B : 00;
 55C : 00;
 55D : 00;
 55E : 03;
 55F : 0c;
 560 : 60;
 561 : 04;
 562 : 00;
 563 : 00;
 564 : 01;
 565 : 16;
 566 : 90;
 567 : 04;
 568 : fe;
 569 : 00;
 56A : 00;
 56B : 01;
 56C : 06;
 56D : e8;
 56E : 04;
 56F : 50;
 570 : 18;
 571 : d5;
 572 : 12;
 573 : e8;
 574 : 00;
 575 : 50;
 576 : 20;
 577 : db;
 578 : 22;
 579 : f0;
 57A : 00;
 57B : 00;
 57C : 00;
 57D : 03;
 57E : 04;
 57F : d0;
 580 : 04;
 581 : 14;
 582 : 6e;
 583 : f6;
 584 : 21;
 585 : d0;
 586 : 00;
 587 : 7c;
 588 : 46;
 589 : f6;
 58A : 21;
 58B : d8;
 58C : 00;
 58D : 00;
 58E : 00;
 58F : 01;
 590 : 20;
 591 : 50;
 592 : 04;
 593 : 00;
 594 : 00;
 595 : 00;
 596 : 04;
 597 : 00;
 598 : 04;
 599 : 38;
 59A : c7;
 59B : 04;
 59C : 22;
 59D : 00;
 59E : 00;
 59F : 00;
 5A0 : 00;
 5A1 : 02;
 5A2 : 10;
 5A3 : 10;
 5A4 : 04;
 5A5 : fe;
 5A6 : b3;
 5A7 : c4;
 5A8 : f6;
 5A9 : c4;
 5AA : f6;
 5AB : c4;
 5AC : 69;
 5AD : c5;
 5AE : 7f;
 5AF : 7f;
 5B0 : 7f;
 5B1 : 00;
 5B2 : 5f;
 5B3 : 3f;
 5B4 : 00;
 5B5 : 2f;
 5B6 : 7f;
 5B7 : 7f;
 5B8 : 00;
 5B9 : a9;
 5BA : a9;
 5BB : 81;
 5BC : 81;
 5BD : 59;
 5BE : 59;
 5BF : 31;
 5C0 : 31;
 5C1 : 00;
 5C2 : 30;
 5C3 : 4c;
 5C4 : d5;
 5C5 : 00;
 5C6 : 10;
 5C7 : e0;
 5C8 : 00;
 5C9 : 24;
 5CA : 50;
 5CB : c0;
 5CC : 00;
 5CD : 3b;
 5CE : b3;
 5CF : 3b;
 5D0 : b3;
 5D1 : 3b;
 5D2 : b3;
 5D3 : 38;
 5D4 : b3;
 5D5 : 00;
 5D6 : 22;
 5D7 : 22;
 5D8 : 22;
 5D9 : 00;
 5DA : 21;
 5DB : 21;
 5DC : 00;
 5DD : 20;
 5DE : 22;
 5DF : 22;
 5E0 : 00;
 5E1 : 22;
 5E2 : 22;
 5E3 : 22;
 5E4 : 22;
 5E5 : 21;
 5E6 : 21;
 5E7 : 21;
 5E8 : 21;
 5E9 : 06;
 5EA : 0a;
 5EB : 1b;
 5EC : 00;
 5ED : 82;
 5EE : 1c;
 5EF : 00;
 5F0 : c5;
 5F1 : 0a;
 5F2 : 18;
 5F3 : 00;
 5F4 : e8;
 5F5 : f7;
 5F6 : 48;
 5F7 : 57;
 5F8 : a8;
 5F9 : b7;
 5FA : 08;
 5FB : 17;
 5FC : 00;
 5FD : 04;
 5FE : 07;
 5FF : 0b;
 600 : 01;
 601 : 03;
 602 : 05;
 603 : 08;
 604 : d0;
 605 : d1;
 606 : d2;
 607 : d3;
 608 : 84;
 609 : 8d;
 60A : 84;
 60B : 8d;
 60C : 46;
 60D : 76;
 60E : 77;
 60F : 78;
 610 : 79;
 611 : 7a;
 612 : 7b;
 613 : 7c;
 614 : 7d;
 615 : 7e;
 616 : 7f;
 617 : 80;
 618 : 81;
 619 : 82;
 61A : 83;
 61B : 84;
 61C : 85;
 61D : 24;
 61E : 24;
 61F : 86;
 620 : 87;
 621 : 24;
 622 : 24;
 623 : 24;
 624 : 88;
 625 : 46;
 626 : 24;
 627 : 9c;
 628 : 9d;
 629 : 9e;
 62A : 9f;
 62B : a0;
 62C : a1;
 62D : a2;
 62E : a3;
 62F : a4;
 630 : a5;
 631 : a6;
 632 : a7;
 633 : a8;
 634 : a9;
 635 : aa;
 636 : ab;
 637 : ac;
 638 : ad;
 639 : ae;
 63A : 24;
 63B : af;
 63C : b0;
 63D : b1;
 63E : 46;
 63F : 24;
 640 : 24;
 641 : 24;
 642 : 89;
 643 : 24;
 644 : 24;
 645 : 8a;
 646 : 8b;
 647 : 8c;
 648 : 8d;
 649 : 8e;
 64A : 8f;
 64B : 90;
 64C : 91;
 64D : 92;
 64E : 93;
 64F : 94;
 650 : 95;
 651 : 96;
 652 : 97;
 653 : 98;
 654 : 99;
 655 : 9a;
 656 : 9b;
 657 : 46;
 658 : 24;
 659 : b2;
 65A : 68;
 65B : 9e;
 65C : b5;
 65D : b6;
 65E : 6c;
 65F : c7;
 660 : a3;
 661 : a4;
 662 : 69;
 663 : a6;
 664 : a7;
 665 : a8;
 666 : 6b;
 667 : aa;
 668 : c9;
 669 : ca;
 66A : 6d;
 66B : bf;
 66C : 24;
 66D : cd;
 66E : 6a;
 66F : b1;
 670 : 46;
 671 : c2;
 672 : c3;
 673 : 24;
 674 : 9e;
 675 : c4;
 676 : c5;
 677 : c6;
 678 : c7;
 679 : a3;
 67A : b9;
 67B : a5;
 67C : a6;
 67D : a7;
 67E : bb;
 67F : 6b;
 680 : c8;
 681 : c9;
 682 : ca;
 683 : cb;
 684 : cc;
 685 : 24;
 686 : cd;
 687 : ce;
 688 : cf;
 689 : 46;
 68A : 24;
 68B : b2;
 68C : b3;
 68D : b4;
 68E : b5;
 68F : b6;
 690 : b7;
 691 : b8;
 692 : a3;
 693 : b9;
 694 : 69;
 695 : ba;
 696 : a7;
 697 : bb;
 698 : a9;
 699 : aa;
 69A : bc;
 69B : bd;
 69C : be;
 69D : bf;
 69E : c0;
 69F : c1;
 6A0 : 24;
 6A1 : b1;
 6A2 : 13;
 6A3 : 2c;
 6A4 : 16;
 6A5 : 13;
 6A6 : 13;
 6A7 : 16;
 6A8 : 30;
 6A9 : 37;
 6AA : 23;
 6AB : db;
 6AC : 42;
 6AD : a0;
 6AE : 21;
 6AF : ca;
 6B0 : 4c;
 6B1 : 24;
 6B2 : 21;
 6B3 : ea;
 6B4 : 0c;
 6B5 : 24;
 6B6 : 24;
 6B7 : 19;
 6B8 : 15;
 6B9 : 0a;
 6BA : 22;
 6BB : 0e;
 6BC : 1b;
 6BD : 24;
 6BE : 66;
 6BF : 24;
 6C0 : 24;
 6C1 : 00;
 6C2 : 23;
 6C3 : e2;
 6C4 : 04;
 6C5 : 08;
 6C6 : 0a;
 6C7 : 0a;
 6C8 : 02;
 6C9 : 22;
 6CA : 0a;
 6CB : 4c;
 6CC : 24;
 6CD : 22;
 6CE : 2a;
 6CF : 0c;
 6D0 : 24;
 6D1 : 10;
 6D2 : 0a;
 6D3 : 16;
 6D4 : 0e;
 6D5 : 24;
 6D6 : 24;
 6D7 : 18;
 6D8 : 1f;
 6D9 : 0e;
 6DA : 1b;
 6DB : 24;
 6DC : 22;
 6DD : 4a;
 6DE : 4c;
 6DF : 24;
 6E0 : 00;
 6E1 : 12;
 6E2 : 24;
 6E3 : 24;
 6E4 : 20;
 6E5 : 63;
 6E6 : 5b;
 6E7 : 24;
 6E8 : 20;
 6E9 : 94;
 6EA : 4a;
 6EB : 24;
 6EC : 20;
 6ED : b4;
 6EE : 4a;
 6EF : 24;
 6F0 : 00;
 6F1 : 21;
 6F2 : 09;
 6F3 : 4e;
 6F4 : 24;
 6F5 : 21;
 6F6 : a9;
 6F7 : 4e;
 6F8 : 24;
 6F9 : 22;
 6FA : 49;
 6FB : 4e;
 6FC : 24;
 6FD : 22;
 6FE : e9;
 6FF : 4e;
 700 : 24;
 701 : 3f;
 702 : 1d;
 703 : 03;
 704 : 30;
 705 : 36;
 706 : 06;
 707 : 00;
 708 : 20;
 709 : 8d;
 70A : 46;
 70B : 24;
 70C : 20;
 70D : ad;
 70E : 46;
 70F : 24;
 710 : 20;
 711 : cd;
 712 : 46;
 713 : 24;
 714 : 20;
 715 : ed;
 716 : 46;
 717 : 24;
 718 : 00;
 719 : 12;
 71A : aa;
 71B : aa;
 71C : 46;
 71D : 24;
 71E : 24;
 71F : dc;
 720 : dd;
 721 : d4;
 722 : d5;
 723 : de;
 724 : df;
 725 : d6;
 726 : d7;
 727 : e0;
 728 : e1;
 729 : d8;
 72A : d9;
 72B : e2;
 72C : e3;
 72D : da;
 72E : db;
 72F : e4;
 730 : e5;
 731 : 24;
 732 : 24;
 733 : e6;
 734 : e7;
 735 : 46;
 736 : e8;
 737 : e9;
 738 : ea;
 739 : eb;
 73A : ec;
 73B : ed;
 73C : ee;
 73D : ef;
 73E : 24;
 73F : f0;
 740 : f1;
 741 : f2;
 742 : 24;
 743 : f3;
 744 : f4;
 745 : f5;
 746 : f6;
 747 : f7;
 748 : f8;
 749 : f9;
 74A : fa;
 74B : fb;
 74C : fc;
 74D : fd;
 74E : 21;
 74F : 08;
 750 : 50;
 751 : 62;
 752 : 00;
 753 : 23;
 754 : 09;
 755 : 4e;
 756 : 62;
 757 : 23;
 758 : 29;
 759 : 4e;
 75A : 62;
 75B : 23;
 75C : 49;
 75D : 4e;
 75E : 62;
 75F : 00;
 760 : 20;
 761 : c5;
 762 : 42;
 763 : 24;
 764 : 20;
 765 : ca;
 766 : 42;
 767 : 24;
 768 : 20;
 769 : ea;
 76A : 42;
 76B : 24;
 76C : 20;
 76D : e5;
 76E : 42;
 76F : 24;
 770 : 22;
 771 : 0a;
 772 : 42;
 773 : 24;
 774 : 22;
 775 : 2a;
 776 : 42;
 777 : 24;
 778 : 22;
 779 : 18;
 77A : 42;
 77B : 24;
 77C : 00;
 77D : 22;
 77E : 38;
 77F : 42;
 780 : 24;
 781 : 21;
 782 : 29;
 783 : c4;
 784 : 24;
 785 : 21;
 786 : 36;
 787 : c4;
 788 : 24;
 789 : 21;
 78A : d0;
 78B : c4;
 78C : 24;
 78D : 22;
 78E : 6c;
 78F : c4;
 790 : 24;
 791 : 22;
 792 : 73;
 793 : c4;
 794 : 24;
 795 : 23;
 796 : 0f;
 797 : c3;
 798 : 24;
 799 : 00;
 79A : ff;
 79B : 01;
 79C : 01;
 79D : ff;
 79E : 78;
 79F : d8;
 7A0 : a9;
 7A1 : 10;
 7A2 : 8d;
 7A3 : 00;
 7A4 : 20;
 7A5 : a2;
 7A6 : ff;
 7A7 : 9a;
 7A8 : ad;
 7A9 : 02;
 7AA : 20;
 7AB : 29;
 7AC : 80;
 7AD : f0;
 7AE : f9;
 7AF : a0;
 7B0 : 07;
 7B1 : 84;
 7B2 : 01;
 7B3 : a0;
 7B4 : 00;
 7B5 : 84;
 7B6 : 00;
 7B7 : a9;
 7B8 : 00;
 7B9 : 91;
 7BA : 00;
 7BB : 88;
 7BC : d0;
 7BD : fb;
 7BE : c6;
 7BF : 01;
 7C0 : 10;
 7C1 : f7;
 7C2 : 20;
 7C3 : e7;
 7C4 : c7;
 7C5 : a9;
 7C6 : 7f;
 7C7 : 8d;
 7C8 : 11;
 7C9 : 05;
 7CA : a9;
 7CB : 18;
 7CC : 85;
 7CD : 51;
 7CE : a9;
 7CF : 01;
 7D0 : 85;
 7D1 : 4e;
 7D2 : 85;
 7D3 : 55;
 7D4 : a9;
 7D5 : 00;
 7D6 : 85;
 7D7 : 4f;
 7D8 : a5;
 7D9 : 10;
 7DA : 49;
 7DB : 80;
 7DC : 8d;
 7DD : 00;
 7DE : 20;
 7DF : 85;
 7E0 : 10;
 7E1 : 20;
 7E2 : ed;
 7E3 : f4;
 7E4 : 4c;
 7E5 : e1;
 7E6 : c7;
 7E7 : a9;
 7E8 : 10;
 7E9 : 8d;
 7EA : 00;
 7EB : 20;
 7EC : 85;
 7ED : 10;
 7EE : a9;
 7EF : 06;
 7F0 : 8d;
 7F1 : 01;
 7F2 : 20;
 7F3 : 85;
 7F4 : 11;
 7F5 : a9;
 7F6 : 00;
 7F7 : 8d;
 7F8 : 05;
 7F9 : 20;
 7FA : 85;
 7FB : 12;
 7FC : 8d;
 7FD : 05;
 7FE : 20;
 7FF : 85;
 800 : 13;
 801 : 20;
 802 : ae;
 803 : cb;
 804 : 4c;
 805 : b7;
 806 : cb;
 807 : aa;
 808 : bd;
 809 : a7;
 80A : c4;
 80B : 85;
 80C : 00;
 80D : bd;
 80E : a8;
 80F : c4;
 810 : 85;
 811 : 01;
 812 : 4c;
 813 : 28;
 814 : f2;
 815 : aa;
 816 : bd;
 817 : 3c;
 818 : c0;
 819 : 85;
 81A : 02;
 81B : bd;
 81C : 3d;
 81D : c0;
 81E : 85;
 81F : 03;
 820 : 4c;
 821 : d7;
 822 : f2;
 823 : aa;
 824 : bd;
 825 : 3c;
 826 : c0;
 827 : 85;
 828 : 00;
 829 : bd;
 82A : 3d;
 82B : c0;
 82C : 85;
 82D : 01;
 82E : 4c;
 82F : 76;
 830 : cd;
 831 : aa;
 832 : bd;
 833 : 3c;
 834 : c0;
 835 : 85;
 836 : 04;
 837 : bd;
 838 : 3d;
 839 : c0;
 83A : 85;
 83B : 05;
 83C : bd;
 83D : 44;
 83E : c0;
 83F : 85;
 840 : 06;
 841 : bd;
 842 : 45;
 843 : c0;
 844 : 85;
 845 : 07;
 846 : 60;
 847 : aa;
 848 : bd;
 849 : 3c;
 84A : c0;
 84B : 85;
 84C : 02;
 84D : bd;
 84E : 3d;
 84F : c0;
 850 : 85;
 851 : 03;
 852 : 60;
 853 : aa;
 854 : bd;
 855 : 3c;
 856 : c0;
 857 : 85;
 858 : 08;
 859 : bd;
 85A : 3d;
 85B : c0;
 85C : 85;
 85D : 09;
 85E : 60;
 85F : 48;
 860 : a5;
 861 : 10;
 862 : 29;
 863 : 7f;
 864 : 8d;
 865 : 00;
 866 : 20;
 867 : 85;
 868 : 10;
 869 : a9;
 86A : 00;
 86B : 8d;
 86C : 03;
 86D : 20;
 86E : a9;
 86F : 02;
 870 : 8d;
 871 : 14;
 872 : 40;
 873 : a9;
 874 : 31;
 875 : 85;
 876 : 00;
 877 : a9;
 878 : 03;
 879 : 85;
 87A : 01;
 87B : 20;
 87C : 28;
 87D : f2;
 87E : a9;
 87F : 00;
 880 : 8d;
 881 : 30;
 882 : 03;
 883 : 8d;
 884 : 31;
 885 : 03;
 886 : 20;
 887 : 0e;
 888 : f5;
 889 : a5;
 88A : 11;
 88B : 49;
 88C : 18;
 88D : 8d;
 88E : 01;
 88F : 20;
 890 : 20;
 891 : 48;
 892 : fa;
 893 : a5;
 894 : 4e;
 895 : d0;
 896 : 2a;
 897 : a5;
 898 : 4f;
 899 : f0;
 89A : 39;
 89B : a5;
 89C : 9a;
 89D : d0;
 89E : 06;
 89F : 20;
 8A0 : 7c;
 8A1 : ce;
 8A2 : 4c;
 8A3 : d7;
 8A4 : c8;
 8A5 : ad;
 8A6 : 4f;
 8A7 : 04;
 8A8 : c9;
 8A9 : 08;
 8AA : d0;
 8AB : 28;
 8AC : 20;
 8AD : f4;
 8AE : cc;
 8AF : a5;
 8B0 : 43;
 8B1 : d0;
 8B2 : 24;
 8B3 : a9;
 8B4 : 00;
 8B5 : 8d;
 8B6 : 4f;
 8B7 : 04;
 8B8 : 85;
 8B9 : 4f;
 8BA : a9;
 8BB : 79;
 8BC : 85;
 8BD : 43;
 8BE : 4c;
 8BF : d7;
 8C0 : c8;
 8C1 : a5;
 8C2 : 55;
 8C3 : d0;
 8C4 : 06;
 8C5 : 20;
 8C6 : 30;
 8C7 : ca;
 8C8 : 4c;
 8C9 : d7;
 8CA : c8;
 8CB : 20;
 8CC : f3;
 8CD : c8;
 8CE : 20;
 8CF : ac;
 8D0 : f4;
 8D1 : 4c;
 8D2 : d7;
 8D3 : c8;
 8D4 : 20;
 8D5 : c9;
 8D6 : ca;
 8D7 : ad;
 8D8 : 05;
 8D9 : 05;
 8DA : c9;
 8DB : 01;
 8DC : d0;
 8DD : 0a;
 8DE : a5;
 8DF : 51;
 8E0 : 85;
 8E1 : 00;
 8E2 : 20;
 8E3 : 3c;
 8E4 : f2;
 8E5 : ce;
 8E6 : 05;
 8E7 : 05;
 8E8 : a5;
 8E9 : 10;
 8EA : 49;
 8EB : 80;
 8EC : 8d;
 8ED : 00;
 8EE : 20;
 8EF : 85;
 8F0 : 10;
 8F1 : 68;
 8F2 : 40;
 8F3 : ad;
 8F4 : 02;
 8F5 : 01;
 8F6 : d0;
 8F7 : 06;
 8F8 : 8d;
 8F9 : 15;
 8FA : 40;
 8FB : 8d;
 8FC : 00;
 8FD : 01;
 8FE : ad;
 8FF : 18;
 900 : 05;
 901 : d0;
 902 : 11;
 903 : a9;
 904 : 80;
 905 : 85;
 906 : fd;
 907 : a9;
 908 : 04;
 909 : 8d;
 90A : 18;
 90B : 05;
 90C : a9;
 90D : 0f;
 90E : 8d;
 90F : 15;
 910 : 40;
 911 : 8d;
 912 : 00;
 913 : 01;
 914 : ad;
 915 : 10;
 916 : 05;
 917 : d0;
 918 : 27;
 919 : 20;
 91A : 9a;
 91B : d1;
 91C : a9;
 91D : 08;
 91E : 20;
 91F : 07;
 920 : c8;
 921 : ad;
 922 : 11;
 923 : 05;
 924 : 8d;
 925 : 00;
 926 : 02;
 927 : a9;
 928 : a2;
 929 : 8d;
 92A : 01;
 92B : 02;
 92C : a9;
 92D : 00;
 92E : 8d;
 92F : 02;
 930 : 02;
 931 : 85;
 932 : 58;
 933 : a9;
 934 : 38;
 935 : 8d;
 936 : 03;
 937 : 02;
 938 : 8d;
 939 : 10;
 93A : 05;
 93B : a9;
 93C : 20;
 93D : 85;
 93E : 44;
 93F : 60;
 940 : a5;
 941 : 15;
 942 : 29;
 943 : 20;
 944 : d0;
 945 : 17;
 946 : a5;
 947 : 15;
 948 : 29;
 949 : 10;
 94A : d0;
 94B : 3e;
 94C : a9;
 94D : 00;
 94E : 8d;
 94F : 12;
 950 : 05;
 951 : a5;
 952 : 44;
 953 : d0;
 954 : 07;
 955 : a9;
 956 : 01;
 957 : 85;
 958 : 58;
 959 : 4c;
 95A : b1;
 95B : c9;
 95C : 60;
 95D : a9;
 95E : 40;
 95F : 85;
 960 : 44;
 961 : ad;
 962 : 12;
 963 : 05;
 964 : d0;
 965 : 1f;
 966 : a9;
 967 : 40;
 968 : 85;
 969 : 35;
 96A : ad;
 96B : 00;
 96C : 02;
 96D : 18;
 96E : 69;
 96F : 10;
 970 : c9;
 971 : bf;
 972 : d0;
 973 : 02;
 974 : a9;
 975 : 7f;
 976 : 8d;
 977 : 00;
 978 : 02;
 979 : 8d;
 97A : 11;
 97B : 05;
 97C : ee;
 97D : 12;
 97E : 05;
 97F : a9;
 980 : 0a;
 981 : 8d;
 982 : 13;
 983 : 05;
 984 : 60;
 985 : a5;
 986 : 35;
 987 : d0;
 988 : 00;
 989 : 60;
 98A : 8d;
 98B : 14;
 98C : 05;
 98D : a2;
 98E : 0a;
 98F : a9;
 990 : 00;
 991 : 95;
 992 : 24;
 993 : ca;
 994 : d0;
 995 : fb;
 996 : ad;
 997 : 11;
 998 : 05;
 999 : 4a;
 99A : 4a;
 99B : 4a;
 99C : 4a;
 99D : 38;
 99E : e9;
 99F : 07;
 9A0 : 85;
 9A1 : 50;
 9A2 : c9;
 9A3 : 02;
 9A4 : 30;
 9A5 : 07;
 9A6 : a9;
 9A7 : 1c;
 9A8 : 85;
 9A9 : 51;
 9AA : 4c;
 9AB : b1;
 9AC : c9;
 9AD : a9;
 9AE : 18;
 9AF : 85;
 9B0 : 51;
 9B1 : a5;
 9B2 : 50;
 9B3 : 29;
 9B4 : 01;
 9B5 : 0a;
 9B6 : aa;
 9B7 : bd;
 9B8 : 07;
 9B9 : 05;
 9BA : 85;
 9BB : 21;
 9BC : bd;
 9BD : 08;
 9BE : 05;
 9BF : 85;
 9C0 : 22;
 9C1 : a9;
 9C2 : 0f;
 9C3 : 85;
 9C4 : 18;
 9C5 : a9;
 9C6 : 13;
 9C7 : 85;
 9C8 : 19;
 9C9 : a9;
 9CA : 00;
 9CB : 85;
 9CC : 4e;
 9CD : 8d;
 9CE : 06;
 9CF : 04;
 9D0 : 8d;
 9D1 : 07;
 9D2 : 04;
 9D3 : 85;
 9D4 : 4f;
 9D5 : 8d;
 9D6 : 10;
 9D7 : 05;
 9D8 : 8d;
 9D9 : 0b;
 9DA : 05;
 9DB : 8d;
 9DC : 12;
 9DD : 05;
 9DE : a9;
 9DF : 01;
 9E0 : 85;
 9E1 : 53;
 9E2 : 8d;
 9E3 : 00;
 9E4 : 04;
 9E5 : 8d;
 9E6 : 01;
 9E7 : 04;
 9E8 : a9;
 9E9 : 00;
 9EA : 85;
 9EB : 54;
 9EC : 8d;
 9ED : 02;
 9EE : 04;
 9EF : 8d;
 9F0 : 03;
 9F1 : 04;
 9F2 : a9;
 9F3 : 00;
 9F4 : 85;
 9F5 : 52;
 9F6 : 8d;
 9F7 : 08;
 9F8 : 04;
 9F9 : 8d;
 9FA : 09;
 9FB : 04;
 9FC : 85;
 9FD : fc;
 9FE : a9;
 9FF : 03;
 A00 : a6;
 A01 : 58;
 A02 : f0;
 A03 : 02;
 A04 : a9;
 A05 : 01;
 A06 : 85;
 A07 : 55;
 A08 : 8d;
 A09 : 04;
 A0A : 04;
 A0B : 8d;
 A0C : 05;
 A0D : 04;
 A0E : 8d;
 A0F : 0b;
 A10 : 04;
 A11 : a5;
 A12 : 58;
 A13 : d0;
 A14 : 11;
 A15 : a9;
 A16 : 97;
 A17 : 85;
 A18 : 43;
 A19 : a9;
 A1A : 01;
 A1B : 85;
 A1C : fd;
 A1D : a9;
 A1E : 0f;
 A1F : 8d;
 A20 : 15;
 A21 : 40;
 A22 : 8d;
 A23 : 00;
 A24 : 01;
 A25 : 60;
 A26 : ce;
 A27 : 18;
 A28 : 05;
 A29 : a9;
 A2A : 75;
 A2B : 85;
 A2C : 43;
 A2D : 4c;
 A2E : ae;
 A2F : cb;
 A30 : 20;
 A31 : ac;
 A32 : f4;
 A33 : a5;
 A34 : 58;
 A35 : d0;
 A36 : 13;
 A37 : a5;
 A38 : 43;
 A39 : c9;
 A3A : 75;
 A3B : f0;
 A3C : 1d;
 A3D : c9;
 A3E : 74;
 A3F : f0;
 A40 : 1e;
 A41 : c9;
 A42 : 73;
 A43 : f0;
 A44 : 1f;
 A45 : c9;
 A46 : 5f;
 A47 : f0;
 A48 : 30;
 A49 : 60;
 A4A : 85;
 A4B : 55;
 A4C : a9;
 A4D : 00;
 A4E : 85;
 A4F : 58;
 A50 : 8d;
 A51 : 10;
 A52 : 05;
 A53 : 20;
 A54 : b7;
 A55 : cb;
 A56 : 20;
 A57 : ae;
 A58 : cb;
 A59 : 60;
 A5A : c6;
 A5B : 43;
 A5C : 4c;
 A5D : ae;
 A5E : cb;
 A5F : c6;
 A60 : 43;
 A61 : 4c;
 A62 : ca;
 A63 : cb;
 A64 : c6;
 A65 : 43;
 A66 : a5;
 A67 : 50;
 A68 : 29;
 A69 : 01;
 A6A : 0a;
 A6B : aa;
 A6C : a5;
 A6D : 21;
 A6E : 9d;
 A6F : 07;
 A70 : 05;
 A71 : a5;
 A72 : 22;
 A73 : 9d;
 A74 : 08;
 A75 : 05;
 A76 : 4c;
 A77 : f5;
 A78 : cb;
 A79 : a6;
 A7A : 52;
 A7B : a9;
 A7C : 01;
 A7D : 9d;
 A7E : 06;
 A7F : 04;
 A80 : 85;
 A81 : 4e;
 A82 : a5;
 A83 : 51;
 A84 : c9;
 A85 : 1c;
 A86 : d0;
 A87 : 0c;
 A88 : a5;
 A89 : 52;
 A8A : 49;
 A8B : 01;
 A8C : aa;
 A8D : bd;
 A8E : 06;
 A8F : 04;
 A90 : 85;
 A91 : 4e;
 A92 : f0;
 A93 : 05;
 A94 : 85;
 A95 : 55;
 A96 : 4c;
 A97 : 53;
 A98 : ca;
 A99 : a9;
 A9A : 85;
 A9B : 85;
 A9C : 43;
 A9D : 8d;
 A9E : 0b;
 A9F : 04;
 AA0 : a0;
 AA1 : 00;
 AA2 : 84;
 AA3 : 4f;
 AA4 : 86;
 AA5 : 52;
 AA6 : 4c;
 AA7 : a9;
 AA8 : ca;
 AA9 : a0;
 AAA : 00;
 AAB : bd;
 AAC : 00;
 AAD : 04;
 AAE : 99;
 AAF : 53;
 AB0 : 00;
 AB1 : e8;
 AB2 : e8;
 AB3 : c8;
 AB4 : c0;
 AB5 : 03;
 AB6 : d0;
 AB7 : f3;
 AB8 : 60;
 AB9 : a0;
 ABA : 00;
 ABB : b9;
 ABC : 53;
 ABD : 00;
 ABE : 9d;
 ABF : 00;
 AC0 : 04;
 AC1 : e8;
 AC2 : e8;
 AC3 : c8;
 AC4 : c0;
 AC5 : 03;
 AC6 : d0;
 AC7 : f3;
 AC8 : 60;
 AC9 : 20;
 ACA : ac;
 ACB : f4;
 ACC : a5;
 ACD : 53;
 ACE : c9;
 ACF : 01;
 AD0 : f0;
 AD1 : 06;
 AD2 : a5;
 AD3 : 43;
 AD4 : c9;
 AD5 : 84;
 AD6 : f0;
 AD7 : 2a;
 AD8 : a5;
 AD9 : 43;
 ADA : c9;
 ADB : 72;
 ADC : b0;
 ADD : 3a;
 ADE : c9;
 ADF : 6d;
 AE0 : f0;
 AE1 : 05;
 AE2 : c9;
 AE3 : 62;
 AE4 : f0;
 AE5 : 14;
 AE6 : 60;
 AE7 : ad;
 AE8 : 0b;
 AE9 : 04;
 AEA : f0;
 AEB : 0a;
 AEC : a9;
 AED : 00;
 AEE : 8d;
 AEF : 0b;
 AF0 : 04;
 AF1 : c6;
 AF2 : 55;
 AF3 : 20;
 AF4 : bd;
 AF5 : cb;
 AF6 : 20;
 AF7 : 34;
 AF8 : cc;
 AF9 : 60;
 AFA : a9;
 AFB : 01;
 AFC : 85;
 AFD : 4f;
 AFE : 20;
 AFF : 47;
 B00 : cc;
 B01 : 60;
 B02 : a6;
 B03 : 52;
 B04 : a5;
 B05 : 53;
 B06 : dd;
 B07 : 00;
 B08 : 04;
 B09 : f0;
 B0A : 0a;
 B0B : c9;
 B0C : 01;
 B0D : f0;
 B0E : 06;
 B0F : 20;
 B10 : 24;
 B11 : cc;
 B12 : 20;
 B13 : 04;
 B14 : cc;
 B15 : c6;
 B16 : 43;
 B17 : 60;
 B18 : 4c;
 B19 : 1b;
 B1A : cb;
 B1B : c9;
 B1C : 7a;
 B1D : f0;
 B1E : 11;
 B1F : c9;
 B20 : 75;
 B21 : f0;
 B22 : 16;
 B23 : c9;
 B24 : 74;
 B25 : f0;
 B26 : 0f;
 B27 : c9;
 B28 : 73;
 B29 : f0;
 B2A : 2d;
 B2B : c9;
 B2C : 72;
 B2D : f0;
 B2E : 18;
 B2F : 60;
 B30 : 20;
 B31 : 53;
 B32 : ca;
 B33 : 20;
 B34 : ca;
 B35 : cb;
 B36 : c6;
 B37 : 43;
 B38 : 60;
 B39 : 20;
 B3A : b7;
 B3B : cb;
 B3C : c6;
 B3D : 43;
 B3E : a5;
 B3F : 58;
 B40 : d0;
 B41 : 04;
 B42 : a9;
 B43 : 08;
 B44 : 85;
 B45 : fd;
 B46 : 60;
 B47 : c6;
 B48 : 43;
 B49 : a6;
 B4A : 53;
 B4B : ca;
 B4C : bd;
 B4D : 08;
 B4E : c6;
 B4F : 85;
 B50 : 00;
 B51 : a9;
 B52 : 20;
 B53 : 85;
 B54 : 01;
 B55 : 4c;
 B56 : a6;
 B57 : eb;
 B58 : 20;
 B59 : 9a;
 B5A : d1;
 B5B : a6;
 B5C : 53;
 B5D : ca;
 B5E : 8a;
 B5F : 0a;
 B60 : 20;
 B61 : 07;
 B62 : c8;
 B63 : a9;
 B64 : 0a;
 B65 : 20;
 B66 : 07;
 B67 : c8;
 B68 : a5;
 B69 : 51;
 B6A : c9;
 B6B : 1c;
 B6C : f0;
 B6D : 0d;
 B6E : a9;
 B6F : 76;
 B70 : 85;
 B71 : 00;
 B72 : a9;
 B73 : 20;
 B74 : 85;
 B75 : 01;
 B76 : a9;
 B77 : 04;
 B78 : 20;
 B79 : 15;
 B7A : c8;
 B7B : a9;
 B7C : 01;
 B7D : 8d;
 B7E : 05;
 B7F : 05;
 B80 : 20;
 B81 : 32;
 B82 : d0;
 B83 : 20;
 B84 : bd;
 B85 : cb;
 B86 : a9;
 B87 : bc;
 B88 : 85;
 B89 : 00;
 B8A : a4;
 B8B : 54;
 B8C : c8;
 B8D : 20;
 B8E : c2;
 B8F : f4;
 B90 : a9;
 B91 : 00;
 B92 : 85;
 B93 : 2c;
 B94 : a9;
 B95 : 80;
 B96 : 88;
 B97 : c0;
 B98 : 04;
 B99 : 10;
 B9A : 03;
 B9B : b9;
 B9C : 07;
 B9D : c2;
 B9E : 85;
 B9F : 2e;
 BA0 : a9;
 BA1 : 0d;
 BA2 : 85;
 BA3 : 45;
 BA4 : a9;
 BA5 : 02;
 BA6 : 85;
 BA7 : 00;
 BA8 : 20;
 BA9 : 3c;
 BAA : f2;
 BAB : c6;
 BAC : 43;
 BAD : 60;
 BAE : a9;
 BAF : 00;
 BB0 : 85;
 BB1 : 04;
 BB2 : a9;
 BB3 : ff;
 BB4 : 4c;
 BB5 : 92;
 BB6 : f0;
 BB7 : 20;
 BB8 : 9a;
 BB9 : d1;
 BBA : 4c;
 BBB : b4;
 BBC : f1;
 BBD : a9;
 BBE : b5;
 BBF : 85;
 BC0 : 00;
 BC1 : a9;
 BC2 : 20;
 BC3 : 85;
 BC4 : 01;
 BC5 : a4;
 BC6 : 55;
 BC7 : 4c;
 BC8 : c2;
 BC9 : f4;
 BCA : a5;
 BCB : 58;
 BCC : d0;
 BCD : 26;
 BCE : a5;
 BCF : 51;
 BD0 : c9;
 BD1 : 1c;
 BD2 : d0;
 BD3 : 20;
 BD4 : a6;
 BD5 : 52;
 BD6 : a5;
 BD7 : 53;
 BD8 : dd;
 BD9 : 00;
 BDA : 04;
 BDB : d0;
 BDC : 17;
 BDD : a0;
 BDE : 00;
 BDF : b9;
 BE0 : aa;
 BE1 : c6;
 BE2 : 99;
 BE3 : 31;
 BE4 : 03;
 BE5 : f0;
 BE6 : 04;
 BE7 : c8;
 BE8 : 4c;
 BE9 : df;
 BEA : cb;
 BEB : a5;
 BEC : 52;
 BED : f0;
 BEE : 05;
 BEF : a9;
 BF0 : 67;
 BF1 : 8d;
 BF2 : 45;
 BF3 : 03;
 BF4 : 60;
 BF5 : a0;
 BF6 : 00;
 BF7 : b9;
 BF8 : c2;
 BF9 : c6;
 BFA : 99;
 BFB : 31;
 BFC : 03;
 BFD : f0;
 BFE : 04;
 BFF : c8;
 C00 : 4c;
 C01 : f7;
 C02 : cb;
 C03 : 60;
 C04 : a5;
 C05 : 58;
 C06 : d0;
 C07 : 1b;
 C08 : a6;
 C09 : 52;
 C0A : bd;
 C0B : 08;
 C0C : 04;
 C0D : d0;
 C0E : 14;
 C0F : 8a;
 C10 : a8;
 C11 : 18;
 C12 : 0a;
 C13 : 0a;
 C14 : aa;
 C15 : b5;
 C16 : 25;
 C17 : c9;
 C18 : 02;
 C19 : 90;
 C1A : 08;
 C1B : 99;
 C1C : 08;
 C1D : 04;
 C1E : e6;
 C1F : 55;
 C20 : 20;
 C21 : bd;
 C22 : cb;
 C23 : 60;
 C24 : a5;
 C25 : 2e;
 C26 : 85;
 C27 : 00;
 C28 : a5;
 C29 : 52;
 C2A : 09;
 C2B : 08;
 C2C : 85;
 C2D : 01;
 C2E : 20;
 C2F : 42;
 C30 : f3;
 C31 : 4c;
 C32 : 32;
 C33 : d0;
 C34 : a9;
 C35 : 01;
 C36 : 8d;
 C37 : 05;
 C38 : 05;
 C39 : 20;
 C3A : 32;
 C3B : d0;
 C3C : a9;
 C3D : 00;
 C3E : 8d;
 C3F : 0b;
 C40 : 05;
 C41 : 20;
 C42 : c1;
 C43 : cc;
 C44 : 4c;
 C45 : f2;
 C46 : d7;
 C47 : a9;
 C48 : 00;
 C49 : aa;
 C4A : 95;
 C4B : 59;
 C4C : 9d;
 C4D : 0d;
 C4E : 04;
 C4F : e8;
 C50 : e0;
 C51 : 89;
 C52 : d0;
 C53 : f6;
 C54 : a9;
 C55 : 01;
 C56 : 85;
 C57 : 59;
 C58 : 85;
 C59 : 96;
 C5A : 8d;
 C5B : 3e;
 C5C : 04;
 C5D : 8d;
 C5E : 51;
 C5F : 04;
 C60 : 8d;
 C61 : 52;
 C62 : 04;
 C63 : 85;
 C64 : 9f;
 C65 : 8d;
 C66 : 03;
 C67 : 05;
 C68 : a9;
 C69 : 04;
 C6A : 85;
 C6B : 97;
 C6C : a9;
 C6D : 58;
 C6E : 8d;
 C6F : 3d;
 C70 : 04;
 C71 : a9;
 C72 : 20;
 C73 : 85;
 C74 : a2;
 C75 : a9;
 C76 : 80;
 C77 : 85;
 C78 : 18;
 C79 : a9;
 C7A : 0a;
 C7B : 85;
 C7C : 34;
 C7D : a6;
 C7E : 52;
 C7F : 20;
 C80 : b9;
 C81 : ca;
 C82 : a9;
 C83 : bb;
 C84 : 85;
 C85 : 39;
 C86 : a9;
 C87 : 27;
 C88 : 85;
 C89 : 44;
 C8A : a5;
 C8B : 53;
 C8C : c9;
 C8D : 01;
 C8E : f0;
 C8F : 09;
 C90 : c9;
 C91 : 03;
 C92 : f0;
 C93 : 12;
 C94 : a9;
 C95 : 10;
 C96 : 85;
 C97 : fc;
 C98 : 60;
 C99 : a9;
 C9A : 38;
 C9B : 85;
 C9C : 36;
 C9D : a9;
 C9E : 40;
 C9F : 85;
 CA0 : 43;
 CA1 : a9;
 CA2 : 02;
 CA3 : 85;
 CA4 : fc;
 CA5 : 60;
 CA6 : a9;
 CA7 : 20;
 CA8 : 85;
 CA9 : 36;
 CAA : a9;
 CAB : 50;
 CAC : 8d;
 CAD : 3f;
 CAE : 04;
 CAF : 8d;
 CB0 : 41;
 CB1 : 04;
 CB2 : 8d;
 CB3 : 43;
 CB4 : 04;
 CB5 : a9;
 CB6 : 03;
 CB7 : 8d;
 CB8 : 40;
 CB9 : 04;
 CBA : 8d;
 CBB : 42;
 CBC : 04;
 CBD : 8d;
 CBE : 44;
 CBF : 04;
 CC0 : 60;
 CC1 : a5;
 CC2 : 53;
 CC3 : 38;
 CC4 : e9;
 CC5 : 01;
 CC6 : 0a;
 CC7 : aa;
 CC8 : bd;
 CC9 : a6;
 CCA : c5;
 CCB : 85;
 CCC : 09;
 CCD : bd;
 CCE : a7;
 CCF : c5;
 CD0 : 85;
 CD1 : 0a;
 CD2 : a2;
 CD3 : 00;
 CD4 : a0;
 CD5 : 00;
 CD6 : b1;
 CD7 : 09;
 CD8 : c9;
 CD9 : fe;
 CDA : f0;
 CDB : 17;
 CDC : 95;
 CDD : 00;
 CDE : c8;
 CDF : e8;
 CE0 : e0;
 CE1 : 05;
 CE2 : d0;
 CE3 : f2;
 CE4 : 84;
 CE5 : 86;
 CE6 : b1;
 CE7 : 09;
 CE8 : 20;
 CE9 : 96;
 CEA : f0;
 CEB : a4;
 CEC : 86;
 CED : c8;
 CEE : a2;
 CEF : 00;
 CF0 : 4c;
 CF1 : d6;
 CF2 : cc;
 CF3 : 60;
 CF4 : ad;
 CF5 : 50;
 CF6 : 04;
 CF7 : d0;
 CF8 : 0e;
 CF9 : a9;
 CFA : 01;
 CFB : 8d;
 CFC : 50;
 CFD : 04;
 CFE : a9;
 CFF : 0a;
 D00 : 85;
 D01 : 34;
 D02 : a9;
 D03 : 10;
 D04 : 85;
 D05 : fd;
 D06 : 60;
 D07 : a5;
 D08 : 43;
 D09 : c9;
 D0A : 58;
 D0B : 90;
 D0C : 06;
 D0D : 20;
 D0E : ac;
 D0F : f4;
 D10 : 4c;
 D11 : 22;
 D12 : cd;
 D13 : 20;
 D14 : 24;
 D15 : cc;
 D16 : 20;
 D17 : 04;
 D18 : cc;
 D19 : a9;
 D1A : 00;
 D1B : 85;
 D1C : 43;
 D1D : 85;
 D1E : 9a;
 D1F : 4c;
 D20 : 53;
 D21 : ca;
 D22 : a5;
 D23 : 43;
 D24 : c9;
 D25 : 9f;
 D26 : f0;
 D27 : 1d;
 D28 : c9;
 D29 : 9e;
 D2A : f0;
 D2B : 1e;
 D2C : c9;
 D2D : 9d;
 D2E : f0;
 D2F : 1f;
 D30 : c9;
 D31 : 9c;
 D32 : f0;
 D33 : 24;
 D34 : c9;
 D35 : 9b;
 D36 : f0;
 D37 : 29;
 D38 : c9;
 D39 : 90;
 D3A : b0;
 D3B : 2a;
 D3C : c9;
 D3D : 86;
 D3E : b0;
 D3F : 29;
 D40 : c9;
 D41 : 70;
 D42 : b0;
 D43 : 28;
 D44 : 60;
 D45 : c6;
 D46 : 43;
 D47 : 4c;
 D48 : 6f;
 D49 : cd;
 D4A : c6;
 D4B : 43;
 D4C : 4c;
 D4D : 7f;
 D4E : cd;
 D4F : a0;
 D50 : 1c;
 D51 : c6;
 D52 : 43;
 D53 : a9;
 D54 : 06;
 D55 : 4c;
 D56 : 23;
 D57 : c8;
 D58 : a0;
 D59 : 1c;
 D5A : c6;
 D5B : 43;
 D5C : a9;
 D5D : 08;
 D5E : 4c;
 D5F : 23;
 D60 : c8;
 D61 : c6;
 D62 : 43;
 D63 : 4c;
 D64 : 89;
 D65 : cd;
 D66 : 4c;
 D67 : 9d;
 D68 : cd;
 D69 : 4c;
 D6A : b1;
 D6B : cd;
 D6C : 4c;
 D6D : 24;
 D6E : ce;
 D6F : a0;
 D70 : 0c;
 D71 : a9;
 D72 : 0a;
 D73 : 4c;
 D74 : 23;
 D75 : c8;
 D76 : b1;
 D77 : 00;
 D78 : 99;
 D79 : 31;
 D7A : 03;
 D7B : 88;
 D7C : 10;
 D7D : f8;
 D7E : 60;
 D7F : 20;
 D80 : ae;
 D81 : cb;
 D82 : a0;
 D83 : 16;
 D84 : a9;
 D85 : 0c;
 D86 : 4c;
 D87 : 23;
 D88 : c8;
 D89 : a0;
 D8A : 0c;
 D8B : a9;
 D8C : 0e;
 D8D : 20;
 D8E : 23;
 D8F : c8;
 D90 : a9;
 D91 : 03;
 D92 : 85;
 D93 : 02;
 D94 : a9;
 D95 : 18;
 D96 : 85;
 D97 : 03;
 D98 : a9;
 D99 : 50;
 D9A : 4c;
 D9B : 8c;
 D9C : f0;
 D9D : a9;
 D9E : 8d;
 D9F : 85;
 DA0 : 00;
 DA1 : a9;
 DA2 : 20;
 DA3 : 85;
 DA4 : 01;
 DA5 : a5;
 DA6 : 43;
 DA7 : 29;
 DA8 : 01;
 DA9 : f0;
 DAA : 03;
 DAB : 4c;
 DAC : 89;
 DAD : eb;
 DAE : 4c;
 DAF : 92;
 DB0 : eb;
 DB1 : c9;
 DB2 : 8f;
 DB3 : d0;
 DB4 : 22;
 DB5 : c6;
 DB6 : 43;
 DB7 : a0;
 DB8 : 10;
 DB9 : a9;
 DBA : 10;
 DBB : 20;
 DBC : 23;
 DBD : c8;
 DBE : a9;
 DBF : 01;
 DC0 : 85;
 DC1 : fe;
 DC2 : a9;
 DC3 : 68;
 DC4 : 85;
 DC5 : 00;
 DC6 : a9;
 DC7 : 3e;
 DC8 : 85;
 DC9 : 01;
 DCA : a9;
 DCB : 40;
 DCC : 85;
 DCD : 02;
 DCE : a9;
 DCF : 46;
 DD0 : 85;
 DD1 : 03;
 DD2 : a9;
 DD3 : 50;
 DD4 : 4c;
 DD5 : 80;
 DD6 : f0;
 DD7 : ad;
 DD8 : 50;
 DD9 : 02;
 DDA : c9;
 DDB : a0;
 DDC : f0;
 DDD : 11;
 DDE : c9;
 DDF : ff;
 DE0 : f0;
 DE1 : 11;
 DE2 : 18;
 DE3 : 69;
 DE4 : 02;
 DE5 : 85;
 DE6 : 01;
 DE7 : ad;
 DE8 : 53;
 DE9 : 02;
 DEA : 85;
 DEB : 00;
 DEC : 4c;
 DED : ca;
 DEE : cd;
 DEF : a9;
 DF0 : 80;
 DF1 : 85;
 DF2 : fe;
 DF3 : a9;
 DF4 : 18;
 DF5 : 85;
 DF6 : 03;
 DF7 : a9;
 DF8 : 50;
 DF9 : 20;
 DFA : 8c;
 DFB : f0;
 DFC : a9;
 DFD : eb;
 DFE : 85;
 DFF : 00;
 E00 : a9;
 E01 : 23;
 E02 : 85;
 E03 : 01;
 E04 : a9;
 E05 : 12;
 E06 : 20;
 E07 : 15;
 E08 : c8;
 E09 : a9;
 E0A : 01;
 E0B : 4c;
 E0C : 0e;
 E0D : ce;
 E0E : 08;
 E0F : a9;
 E10 : 8d;
 E11 : 85;
 E12 : 00;
 E13 : a9;
 E14 : 22;
 E15 : 85;
 E16 : 01;
 E17 : 28;
 E18 : d0;
 E19 : 05;
 E1A : a9;
 E1B : 16;
 E1C : 4c;
 E1D : 15;
 E1E : c8;
 E1F : a9;
 E20 : 14;
 E21 : 4c;
 E22 : 15;
 E23 : c8;
 E24 : c9;
 E25 : 85;
 E26 : f0;
 E27 : 07;
 E28 : a5;
 E29 : 43;
 E2A : 29;
 E2B : 01;
 E2C : 4c;
 E2D : 0e;
 E2E : ce;
 E2F : a9;
 E30 : 04;
 E31 : 85;
 E32 : fd;
 E33 : a0;
 E34 : 04;
 E35 : a9;
 E36 : 18;
 E37 : 20;
 E38 : 23;
 E39 : c8;
 E3A : a9;
 E3B : 78;
 E3C : 85;
 E3D : 00;
 E3E : a9;
 E3F : 20;
 E40 : 85;
 E41 : 01;
 E42 : a9;
 E43 : c8;
 E44 : 85;
 E45 : 02;
 E46 : a9;
 E47 : 22;
 E48 : 85;
 E49 : 03;
 E4A : a9;
 E4B : b0;
 E4C : 20;
 E4D : 80;
 E4E : f0;
 E4F : c6;
 E50 : 43;
 E51 : a9;
 E52 : a0;
 E53 : 85;
 E54 : 00;
 E55 : a9;
 E56 : 30;
 E57 : 85;
 E58 : 01;
 E59 : a9;
 E5A : 04;
 E5B : 20;
 E5C : d4;
 E5D : ea;
 E5E : a9;
 E5F : 00;
 E60 : 20;
 E61 : 86;
 E62 : f0;
 E63 : a9;
 E64 : 28;
 E65 : 8d;
 E66 : e8;
 E67 : 02;
 E68 : 8d;
 E69 : ec;
 E6A : 02;
 E6B : a9;
 E6C : 30;
 E6D : 8d;
 E6E : f0;
 E6F : 02;
 E70 : 8d;
 E71 : f8;
 E72 : 02;
 E73 : a9;
 E74 : 38;
 E75 : 8d;
 E76 : f4;
 E77 : 02;
 E78 : 8d;
 E79 : fc;
 E7A : 02;
 E7B : 60;
 E7C : a5;
 E7D : 58;
 E7E : f0;
 E7F : 14;
 E80 : ad;
 E81 : 02;
 E82 : 01;
 E83 : d0;
 E84 : 06;
 E85 : 8d;
 E86 : 15;
 E87 : 40;
 E88 : 8d;
 E89 : 00;
 E8A : 01;
 E8B : a5;
 E8C : 15;
 E8D : 29;
 E8E : 20;
 E8F : f0;
 E90 : 03;
 E91 : 4c;
 E92 : 2b;
 E93 : cf;
 E94 : ad;
 E95 : 16;
 E96 : 05;
 E97 : d0;
 E98 : 15;
 E99 : ad;
 E9A : 17;
 E9B : 05;
 E9C : f0;
 E9D : 04;
 E9E : ce;
 E9F : 17;
 EA0 : 05;
 EA1 : 60;
 EA2 : 20;
 EA3 : 04;
 EA4 : cc;
 EA5 : 20;
 EA6 : a8;
 EA7 : cf;
 EA8 : a5;
 EA9 : 9a;
 EAA : c9;
 EAB : 01;
 EAC : d0;
 EAD : 03;
 EAE : 4c;
 EAF : 1c;
 EB0 : cf;
 EB1 : a5;
 EB2 : bf;
 EB3 : f0;
 EB4 : 03;
 EB5 : 4c;
 EB6 : 13;
 EB7 : cf;
 EB8 : a5;
 EB9 : 96;
 EBA : c9;
 EBB : ff;
 EBC : d0;
 EBD : 03;
 EBE : 4c;
 EBF : 19;
 EC0 : cf;
 EC1 : c9;
 EC2 : 08;
 EC3 : f0;
 EC4 : 11;
 EC5 : c9;
 EC6 : 04;
 EC7 : f0;
 EC8 : 0d;
 EC9 : a5;
 ECA : 58;
 ECB : f0;
 ECC : 06;
 ECD : 20;
 ECE : da;
 ECF : eb;
 ED0 : 4c;
 ED1 : d6;
 ED2 : ce;
 ED3 : 20;
 ED4 : 75;
 ED5 : d1;
 ED6 : 20;
 ED7 : 06;
 ED8 : eb;
 ED9 : 20;
 EDA : b6;
 EDB : eb;
 EDC : 20;
 EDD : 41;
 EDE : d0;
 EDF : 20;
 EE0 : a4;
 EE1 : d1;
 EE2 : 20;
 EE3 : 5f;
 EE4 : ea;
 EE5 : 20;
 EE6 : e5;
 EE7 : e1;
 EE8 : 20;
 EE9 : 79;
 EEA : ee;
 EEB : a5;
 EEC : 53;
 EED : c9;
 EEE : 03;
 EEF : f0;
 EF0 : 10;
 EF1 : c9;
 EF2 : 04;
 EF3 : f0;
 EF4 : 18;
 EF5 : 20;
 EF6 : 16;
 EF7 : da;
 EF8 : 20;
 EF9 : 9a;
 EFA : e1;
 EFB : 20;
 EFC : 29;
 EFD : ec;
 EFE : 4c;
 EFF : 1c;
 F00 : cf;
 F01 : 20;
 F02 : 34;
 F03 : e8;
 F04 : 20;
 F05 : 81;
 F06 : e9;
 F07 : 20;
 F08 : 29;
 F09 : ec;
 F0A : 4c;
 F0B : 1c;
 F0C : cf;
 F0D : 20;
 F0E : 29;
 F0F : ec;
 F10 : 4c;
 F11 : 1c;
 F12 : cf;
 F13 : 20;
 F14 : 0c;
 F15 : ee;
 F16 : 4c;
 F17 : 1c;
 F18 : cf;
 F19 : 20;
 F1A : c0;
 F1B : d0;
 F1C : 20;
 F1D : 42;
 F1E : cf;
 F1F : ad;
 F20 : 16;
 F21 : 05;
 F22 : d0;
 F23 : 06;
 F24 : 20;
 F25 : 4c;
 F26 : d0;
 F27 : 20;
 F28 : ac;
 F29 : f4;
 F2A : 60;
 F2B : a9;
 F2C : 01;
 F2D : 85;
 F2E : 4e;
 F2F : 8d;
 F30 : 12;
 F31 : 05;
 F32 : 85;
 F33 : 55;
 F34 : a9;
 F35 : 20;
 F36 : 85;
 F37 : 44;
 F38 : a9;
 F39 : 00;
 F3A : 85;
 F3B : 58;
 F3C : 8d;
 F3D : 10;
 F3E : 05;
 F3F : 4c;
 F40 : 53;
 F41 : ca;
 F42 : a5;
 F43 : 15;
 F44 : 29;
 F45 : 10;
 F46 : f0;
 F47 : 47;
 F48 : a5;
 F49 : 58;
 F4A : f0;
 F4B : 09;
 F4C : a9;
 F4D : 00;
 F4E : 85;
 F4F : 58;
 F50 : a5;
 F51 : 15;
 F52 : 4c;
 F53 : 8a;
 F54 : c9;
 F55 : a5;
 F56 : 15;
 F57 : cd;
 F58 : 14;
 F59 : 05;
 F5A : f0;
 F5B : 36;
 F5C : 8d;
 F5D : 14;
 F5E : 05;
 F5F : ad;
 F60 : 16;
 F61 : 05;
 F62 : f0;
 F63 : 16;
 F64 : ad;
 F65 : 17;
 F66 : 05;
 F67 : d0;
 F68 : 10;
 F69 : 8d;
 F6A : 16;
 F6B : 05;
 F6C : a5;
 F6D : 0f;
 F6E : 85;
 F6F : fc;
 F70 : a5;
 F71 : 11;
 F72 : 29;
 F73 : ef;
 F74 : 85;
 F75 : 11;
 F76 : 4c;
 F77 : 87;
 F78 : cf;
 F79 : 60;
 F7A : a9;
 F7B : 01;
 F7C : 8d;
 F7D : 16;
 F7E : 05;
 F7F : a5;
 F80 : fc;
 F81 : 85;
 F82 : 0f;
 F83 : a9;
 F84 : 00;
 F85 : 85;
 F86 : fc;
 F87 : a9;
 F88 : 40;
 F89 : 8d;
 F8A : 17;
 F8B : 05;
 F8C : 85;
 F8D : fd;
 F8E : 60;
 F8F : 8d;
 F90 : 14;
 F91 : 05;
 F92 : ad;
 F93 : 17;
 F94 : 05;
 F95 : f0;
 F96 : 04;
 F97 : ce;
 F98 : 17;
 F99 : 05;
 F9A : 60;
 F9B : ad;
 F9C : 16;
 F9D : 05;
 F9E : d0;
 F9F : 01;
 FA0 : 60;
 FA1 : a5;
 FA2 : 11;
 FA3 : 09;
 FA4 : 10;
 FA5 : 85;
 FA6 : 11;
 FA7 : 60;
 FA8 : a2;
 FA9 : 00;
 FAA : a0;
 FAB : 00;
 FAC : b5;
 FAD : 41;
 FAE : d0;
 FAF : 08;
 FB0 : a9;
 FB1 : ff;
 FB2 : 99;
 FB3 : c0;
 FB4 : 02;
 FB5 : 99;
 FB6 : c4;
 FB7 : 02;
 FB8 : e8;
 FB9 : c8;
 FBA : c8;
 FBB : c8;
 FBC : c8;
 FBD : c8;
 FBE : c8;
 FBF : c8;
 FC0 : c8;
 FC1 : e0;
 FC2 : 02;
 FC3 : 30;
 FC4 : e7;
 FC5 : 60;
 FC6 : a0;
 FC7 : 00;
 FC8 : 84;
 FC9 : 0f;
 FCA : 20;
 FCB : 08;
 FCC : d0;
 FCD : b9;
 FCE : c0;
 FCF : 02;
 FD0 : c9;
 FD1 : ff;
 FD2 : d0;
 FD3 : 25;
 FD4 : a5;
 FD5 : 05;
 FD6 : 99;
 FD7 : c3;
 FD8 : 02;
 FD9 : 18;
 FDA : 69;
 FDB : 08;
 FDC : 99;
 FDD : c7;
 FDE : 02;
 FDF : a5;
 FE0 : 06;
 FE1 : 99;
 FE2 : c0;
 FE3 : 02;
 FE4 : 99;
 FE5 : c4;
 FE6 : 02;
 FE7 : bd;
 FE8 : 04;
 FE9 : c6;
 FEA : 99;
 FEB : c1;
 FEC : 02;
 FED : a9;
 FEE : d4;
 FEF : 99;
 FF0 : c5;
 FF1 : 02;
 FF2 : a6;
 FF3 : 0f;
 FF4 : a9;
 FF5 : 03;
 FF6 : 95;
 FF7 : 41;
 FF8 : 60;
 FF9 : c8;
 FFA : c8;
 FFB : c8;
 FFC : c8;
 FFD : c8;
 FFE : c8;
 FFF : c8;
1000 : c8;
1001 : e6;
1002 : 0f;
1003 : c0;
1004 : 10;
1005 : 30;
1006 : c6;
1007 : 60;
1008 : 8a;
1009 : 48;
100A : 98;
100B : 48;
100C : a5;
100D : 58;
100E : d0;
100F : 1a;
1010 : a5;
1011 : 52;
1012 : 09;
1013 : 18;
1014 : 85;
1015 : 01;
1016 : bd;
1017 : 00;
1018 : c6;
1019 : 85;
101A : 00;
101B : a5;
101C : 05;
101D : 48;
101E : a5;
101F : 06;
1020 : 48;
1021 : 20;
1022 : 42;
1023 : f3;
1024 : 68;
1025 : 85;
1026 : 06;
1027 : 68;
1028 : 85;
1029 : 05;
102A : 20;
102B : 32;
102C : d0;
102D : 68;
102E : a8;
102F : 68;
1030 : aa;
1031 : 60;
1032 : ad;
1033 : 05;
1034 : 05;
1035 : 09;
1036 : 01;
1037 : 8d;
1038 : 05;
1039 : 05;
103A : a9;
103B : f9;
103C : 85;
103D : 00;
103E : 4c;
103F : 35;
1040 : f4;
1041 : a5;
1042 : 2e;
1043 : c9;
1044 : 10;
1045 : 10;
1046 : 04;
1047 : a9;
1048 : 20;
1049 : 85;
104A : fc;
104B : 60;
104C : a5;
104D : 9a;
104E : d0;
104F : 42;
1050 : a6;
1051 : 53;
1052 : e0;
1053 : 04;
1054 : f0;
1055 : 0d;
1056 : a5;
1057 : 5a;
1058 : f0;
1059 : 65;
105A : ca;
105B : bd;
105C : fa;
105D : c1;
105E : c5;
105F : 59;
1060 : f0;
1061 : 12;
1062 : 60;
1063 : a2;
1064 : 00;
1065 : b5;
1066 : c1;
1067 : f0;
1068 : 56;
1069 : e8;
106A : 8e;
106B : 4f;
106C : 04;
106D : e0;
106E : 08;
106F : d0;
1070 : f4;
1071 : 4c;
1072 : 86;
1073 : d0;
1074 : 20;
1075 : e1;
1076 : ea;
1077 : a9;
1078 : 04;
1079 : 20;
107A : d4;
107B : ea;
107C : 20;
107D : cd;
107E : ea;
107F : 20;
1080 : 88;
1081 : f0;
1082 : a9;
1083 : 02;
1084 : 85;
1085 : fd;
1086 : a9;
1087 : 00;
1088 : 85;
1089 : fc;
108A : a9;
108B : 01;
108C : 85;
108D : 9a;
108E : a9;
108F : 00;
1090 : 85;
1091 : 3a;
1092 : a5;
1093 : 3a;
1094 : d0;
1095 : 29;
1096 : e6;
1097 : 53;
1098 : a5;
1099 : 53;
109A : c9;
109B : 02;
109C : f0;
109D : 07;
109E : c9;
109F : 05;
10A0 : b0;
10A1 : 08;
10A2 : 4c;
10A3 : b5;
10A4 : d0;
10A5 : e6;
10A6 : 53;
10A7 : 4c;
10A8 : b5;
10A9 : d0;
10AA : a9;
10AB : 01;
10AC : 85;
10AD : 53;
10AE : e6;
10AF : 54;
10B0 : a9;
10B1 : a0;
10B2 : 85;
10B3 : 43;
10B4 : 60;
10B5 : a9;
10B6 : 8d;
10B7 : 85;
10B8 : 43;
10B9 : a9;
10BA : 00;
10BB : 85;
10BC : 4f;
10BD : 85;
10BE : 9a;
10BF : 60;
10C0 : a9;
10C1 : 00;
10C2 : 85;
10C3 : fc;
10C4 : a9;
10C5 : 10;
10C6 : 20;
10C7 : e6;
10C8 : d9;
10C9 : f0;
10CA : 6d;
10CB : a5;
10CC : 98;
10CD : c9;
10CE : ff;
10CF : f0;
10D0 : 5f;
10D1 : a5;
10D2 : 98;
10D3 : d0;
10D4 : 0f;
10D5 : a5;
10D6 : 58;
10D7 : d0;
10D8 : 04;
10D9 : a9;
10DA : 80;
10DB : 85;
10DC : fe;
10DD : a9;
10DE : 40;
10DF : 85;
10E0 : 3a;
10E1 : e6;
10E2 : 98;
10E3 : 60;
10E4 : a5;
10E5 : 3a;
10E6 : f0;
10E7 : 10;
10E8 : c9;
10E9 : 0e;
10EA : 90;
10EB : 4c;
10EC : a5;
10ED : 58;
10EE : d0;
10EF : 04;
10F0 : a9;
10F1 : 01;
10F2 : 85;
10F3 : ff;
10F4 : a9;
10F5 : 00;
10F6 : 85;
10F7 : 3a;
10F8 : ad;
10F9 : 01;
10FA : 02;
10FB : c9;
10FC : 6c;
10FD : b0;
10FE : 02;
10FF : a9;
1100 : 6c;
1101 : 18;
1102 : 69;
1103 : 04;
1104 : c9;
1105 : 7c;
1106 : 90;
1107 : 17;
1108 : e6;
1109 : 98;
110A : a5;
110B : 98;
110C : c9;
110D : 05;
110E : f0;
110F : 05;
1110 : a9;
1111 : 6c;
1112 : 4c;
1113 : 1f;
1114 : d1;
1115 : a5;
1116 : 58;
1117 : f0;
1118 : 04;
1119 : a9;
111A : 7d;
111B : 85;
111C : 3a;
111D : a9;
111E : 7c;
111F : 85;
1120 : 02;
1121 : 20;
1122 : e1;
1123 : ea;
1124 : 20;
1125 : cd;
1126 : ea;
1127 : 20;
1128 : 82;
1129 : f0;
112A : a5;
112B : 98;
112C : c9;
112D : 05;
112E : d0;
112F : 08;
1130 : a9;
1131 : ff;
1132 : 85;
1133 : 98;
1134 : a5;
1135 : 3a;
1136 : f0;
1137 : 01;
1138 : 60;
1139 : a6;
113A : 52;
113B : 20;
113C : b9;
113D : ca;
113E : a5;
113F : 55;
1140 : d0;
1141 : 09;
1142 : a9;
1143 : 01;
1144 : 85;
1145 : 4e;
1146 : a9;
1147 : 87;
1148 : 85;
1149 : 43;
114A : 60;
114B : a5;
114C : 51;
114D : c9;
114E : 1c;
114F : d0;
1150 : 18;
1151 : a5;
1152 : 52;
1153 : 49;
1154 : 01;
1155 : aa;
1156 : 86;
1157 : 52;
1158 : bd;
1159 : 06;
115A : 04;
115B : f0;
115C : 09;
115D : 8a;
115E : 49;
115F : 01;
1160 : aa;
1161 : 86;
1162 : 52;
1163 : 4c;
1164 : 69;
1165 : d1;
1166 : 20;
1167 : a9;
1168 : ca;
1169 : a9;
116A : 87;
116B : 85;
116C : 43;
116D : 8d;
116E : 0b;
116F : 04;
1170 : a9;
1171 : 00;
1172 : 85;
1173 : 4f;
1174 : 60;
1175 : a5;
1176 : 52;
1177 : 0a;
1178 : aa;
1179 : b5;
117A : 15;
117B : 29;
117C : 0f;
117D : 85;
117E : 56;
117F : f0;
1180 : 08;
1181 : 4a;
1182 : 4a;
1183 : d0;
1184 : 04;
1185 : a5;
1186 : 56;
1187 : 85;
1188 : 57;
1189 : a5;
118A : 96;
118B : c9;
118C : 01;
118D : d0;
118E : 0a;
118F : b5;
1190 : 15;
1191 : 29;
1192 : 80;
1193 : f0;
1194 : 04;
1195 : a9;
1196 : 04;
1197 : 85;
1198 : 96;
1199 : 60;
119A : a5;
119B : 11;
119C : 29;
119D : e7;
119E : 8d;
119F : 01;
11A0 : 20;
11A1 : 85;
11A2 : 11;
11A3 : 60;
11A4 : a5;
11A5 : 96;
11A6 : c9;
11A7 : 01;
11A8 : f0;
11A9 : 11;
11AA : c9;
11AB : 02;
11AC : f0;
11AD : 15;
11AE : c9;
11AF : 04;
11B0 : f0;
11B1 : 14;
11B2 : c9;
11B3 : 08;
11B4 : f0;
11B5 : 13;
11B6 : c9;
11B7 : 0a;
11B8 : f0;
11B9 : 12;
11BA : 60;
11BB : 20;
11BC : cf;
11BD : d1;
11BE : a5;
11BF : 96;
11C0 : 4c;
11C1 : aa;
11C2 : d1;
11C3 : 4c;
11C4 : 7e;
11C5 : d3;
11C6 : 4c;
11C7 : 47;
11C8 : d5;
11C9 : 4c;
11CA : 97;
11CB : d6;
11CC : 4c;
11CD : c6;
11CE : d6;
11CF : a5;
11D0 : 56;
11D1 : c9;
11D2 : 01;
11D3 : f0;
11D4 : 10;
11D5 : c9;
11D6 : 02;
11D7 : f0;
11D8 : 0c;
11D9 : c9;
11DA : 04;
11DB : f0;
11DC : 05;
11DD : c9;
11DE : 08;
11DF : f0;
11E0 : 01;
11E1 : 60;
11E2 : 4c;
11E3 : 8b;
11E4 : d2;
11E5 : a9;
11E6 : db;
11E7 : 85;
11E8 : 0a;
11E9 : a9;
11EA : 36;
11EB : 20;
11EC : e8;
11ED : d9;
11EE : d0;
11EF : 03;
11F0 : 4c;
11F1 : 75;
11F2 : d2;
11F3 : 20;
11F4 : 90;
11F5 : d9;
11F6 : f0;
11F7 : 01;
11F8 : 60;
11F9 : a5;
11FA : 56;
11FB : c9;
11FC : 02;
11FD : f0;
11FE : 06;
11FF : ee;
1200 : 03;
1201 : 02;
1202 : 4c;
1203 : 08;
1204 : d2;
1205 : ce;
1206 : 03;
1207 : 02;
1208 : 20;
1209 : cb;
120A : d2;
120B : 85;
120C : 5a;
120D : ad;
120E : 00;
120F : 02;
1210 : 20;
1211 : 16;
1212 : e0;
1213 : 85;
1214 : 59;
1215 : 20;
1216 : eb;
1217 : d8;
1218 : f0;
1219 : 19;
121A : a6;
121B : 53;
121C : e0;
121D : 01;
121E : d0;
121F : 07;
1220 : 18;
1221 : 6d;
1222 : 00;
1223 : 02;
1224 : 8d;
1225 : 00;
1226 : 02;
1227 : 20;
1228 : 6a;
1229 : d3;
122A : c9;
122B : 00;
122C : f0;
122D : 05;
122E : a9;
122F : 08;
1230 : 85;
1231 : 96;
1232 : 60;
1233 : a5;
1234 : 9b;
1235 : d0;
1236 : 07;
1237 : a9;
1238 : 01;
1239 : 85;
123A : 9b;
123B : 4c;
123C : 75;
123D : d2;
123E : a9;
123F : 08;
1240 : 85;
1241 : ff;
1242 : a9;
1243 : 00;
1244 : 85;
1245 : 9b;
1246 : a5;
1247 : 97;
1248 : f0;
1249 : 18;
124A : c9;
124B : 08;
124C : f0;
124D : 1f;
124E : a9;
124F : 04;
1250 : 85;
1251 : 97;
1252 : a5;
1253 : 85;
1254 : f0;
1255 : 05;
1256 : a9;
1257 : 00;
1258 : 4c;
1259 : 5d;
125A : d2;
125B : a9;
125C : 08;
125D : 85;
125E : 97;
125F : 4c;
1260 : 75;
1261 : d2;
1262 : a9;
1263 : 04;
1264 : 85;
1265 : 97;
1266 : a9;
1267 : 00;
1268 : 85;
1269 : 85;
126A : 4c;
126B : 75;
126C : d2;
126D : a9;
126E : 04;
126F : 85;
1270 : 97;
1271 : a9;
1272 : 01;
1273 : 85;
1274 : 85;
1275 : 20;
1276 : e1;
1277 : ea;
1278 : a5;
1279 : 97;
127A : 85;
127B : 02;
127C : 20;
127D : cd;
127E : ea;
127F : a5;
1280 : 56;
1281 : c9;
1282 : 02;
1283 : f0;
1284 : 03;
1285 : 4c;
1286 : 82;
1287 : f0;
1288 : 4c;
1289 : 88;
128A : f0;
128B : 20;
128C : e1;
128D : ea;
128E : a9;
128F : 86;
1290 : 85;
1291 : 02;
1292 : a9;
1293 : c1;
1294 : 85;
1295 : 03;
1296 : 20;
1297 : eb;
1298 : ef;
1299 : a5;
129A : 53;
129B : 38;
129C : e9;
129D : 01;
129E : 0a;
129F : aa;
12A0 : bd;
12A1 : 7b;
12A2 : c4;
12A3 : 85;
12A4 : 04;
12A5 : bd;
12A6 : 7c;
12A7 : c4;
12A8 : 85;
12A9 : 05;
12AA : bd;
12AB : 83;
12AC : c4;
12AD : 85;
12AE : 06;
12AF : bd;
12B0 : 84;
12B1 : c4;
12B2 : 85;
12B3 : 07;
12B4 : 20;
12B5 : ad;
12B6 : d8;
12B7 : f0;
12B8 : 11;
12B9 : a5;
12BA : 00;
12BB : 38;
12BC : e9;
12BD : 04;
12BE : 85;
12BF : a1;
12C0 : a9;
12C1 : 02;
12C2 : 85;
12C3 : 96;
12C4 : a9;
12C5 : 00;
12C6 : 85;
12C7 : 5b;
12C8 : 85;
12C9 : 5c;
12CA : 60;
12CB : 20;
12CC : e1;
12CD : ea;
12CE : a5;
12CF : 96;
12D0 : c9;
12D1 : 04;
12D2 : f0;
12D3 : 09;
12D4 : c9;
12D5 : 08;
12D6 : f0;
12D7 : 05;
12D8 : a9;
12D9 : 2c;
12DA : 4c;
12DB : df;
12DC : d2;
12DD : a9;
12DE : 4a;
12DF : 20;
12E0 : e8;
12E1 : ef;
12E2 : a5;
12E3 : 53;
12E4 : c9;
12E5 : 01;
12E6 : f0;
12E7 : 08;
12E8 : 38;
12E9 : e9;
12EA : 01;
12EB : 0a;
12EC : aa;
12ED : 4c;
12EE : fd;
12EF : d2;
12F0 : a9;
12F1 : 1a;
12F2 : 20;
12F3 : 31;
12F4 : c8;
12F5 : 20;
12F6 : 1a;
12F7 : d9;
12F8 : 85;
12F9 : 0c;
12FA : 4c;
12FB : 23;
12FC : d3;
12FD : bd;
12FE : 6b;
12FF : c4;
1300 : 85;
1301 : 04;
1302 : bd;
1303 : 6c;
1304 : c4;
1305 : 85;
1306 : 05;
1307 : bd;
1308 : 73;
1309 : c4;
130A : 85;
130B : 06;
130C : bd;
130D : 74;
130E : c4;
130F : 85;
1310 : 07;
1311 : 20;
1312 : ad;
1313 : d8;
1314 : 85;
1315 : 0c;
1316 : d0;
1317 : 0b;
1318 : a5;
1319 : 53;
131A : c9;
131B : 03;
131C : d0;
131D : 05;
131E : 20;
131F : 26;
1320 : d3;
1321 : 85;
1322 : 0c;
1323 : a5;
1324 : 0c;
1325 : 60;
1326 : a9;
1327 : 2a;
1328 : 20;
1329 : 47;
132A : c8;
132B : a9;
132C : 00;
132D : 85;
132E : d2;
132F : a5;
1330 : d2;
1331 : c9;
1332 : 06;
1333 : f0;
1334 : 30;
1335 : aa;
1336 : bc;
1337 : cc;
1338 : c2;
1339 : b9;
133A : 00;
133B : 02;
133C : c9;
133D : ff;
133E : f0;
133F : 0e;
1340 : 85;
1341 : 01;
1342 : b9;
1343 : 03;
1344 : 02;
1345 : 85;
1346 : 00;
1347 : 20;
1348 : ef;
1349 : ef;
134A : c9;
134B : 01;
134C : f0;
134D : 05;
134E : e6;
134F : d2;
1350 : 4c;
1351 : 2f;
1352 : d3;
1353 : a5;
1354 : d2;
1355 : c9;
1356 : 03;
1357 : b0;
1358 : 05;
1359 : a9;
135A : 01;
135B : 4c;
135C : 60;
135D : d3;
135E : a9;
135F : 02;
1360 : 85;
1361 : da;
1362 : a9;
1363 : 01;
1364 : 60;
1365 : a9;
1366 : 00;
1367 : 85;
1368 : da;
1369 : 60;
136A : a5;
136B : 53;
136C : c9;
136D : 01;
136E : f0;
136F : 03;
1370 : 4c;
1371 : 7b;
1372 : d3;
1373 : a9;
1374 : 1c;
1375 : 20;
1376 : 31;
1377 : c8;
1378 : 4c;
1379 : ad;
137A : d8;
137B : a9;
137C : 01;
137D : 60;
137E : a5;
137F : 56;
1380 : c9;
1381 : 08;
1382 : f0;
1383 : 0a;
1384 : c9;
1385 : 04;
1386 : f0;
1387 : 03;
1388 : 4c;
1389 : cf;
138A : d4;
138B : 4c;
138C : 32;
138D : d4;
138E : a5;
138F : 5a;
1390 : f0;
1391 : 0a;
1392 : 20;
1393 : e1;
1394 : ea;
1395 : c6;
1396 : 01;
1397 : 20;
1398 : 0a;
1399 : d5;
139A : d0;
139B : 31;
139C : a9;
139D : 24;
139E : 85;
139F : 0a;
13A0 : a9;
13A1 : 49;
13A2 : 20;
13A3 : e8;
13A4 : d9;
13A5 : d0;
13A6 : 08;
13A7 : ad;
13A8 : 00;
13A9 : 02;
13AA : 85;
13AB : 01;
13AC : 4c;
13AD : cf;
13AE : d4;
13AF : 20;
13B0 : 0a;
13B1 : d5;
13B2 : f0;
13B3 : 33;
13B4 : c9;
13B5 : 02;
13B6 : d0;
13B7 : 03;
13B8 : 4c;
13B9 : cf;
13BA : d4;
13BB : a5;
13BC : 5b;
13BD : f0;
13BE : 11;
13BF : 18;
13C0 : 69;
13C1 : 01;
13C2 : c9;
13C3 : 10;
13C4 : f0;
13C5 : 0c;
13C6 : 90;
13C7 : 0a;
13C8 : a9;
13C9 : 10;
13CA : 4c;
13CB : d2;
13CC : d3;
13CD : 4c;
13CE : cf;
13CF : d4;
13D0 : a9;
13D1 : 01;
13D2 : 85;
13D3 : 5b;
13D4 : aa;
13D5 : ca;
13D6 : bd;
13D7 : 47;
13D8 : c1;
13D9 : 85;
13DA : 02;
13DB : a9;
13DC : 00;
13DD : 85;
13DE : 5a;
13DF : 85;
13E0 : 5c;
13E1 : 20;
13E2 : ee;
13E3 : d4;
13E4 : 4c;
13E5 : 0d;
13E6 : d4;
13E7 : a5;
13E8 : 5c;
13E9 : f0;
13EA : 0e;
13EB : 18;
13EC : 69;
13ED : 01;
13EE : c9;
13EF : 06;
13F0 : f0;
13F1 : 09;
13F2 : 90;
13F3 : 07;
13F4 : a9;
13F5 : 01;
13F6 : 4c;
13F7 : fb;
13F8 : d3;
13F9 : a9;
13FA : 02;
13FB : 85;
13FC : 5c;
13FD : aa;
13FE : ca;
13FF : bd;
1400 : 59;
1401 : c1;
1402 : 85;
1403 : 02;
1404 : a9;
1405 : 00;
1406 : 85;
1407 : 5a;
1408 : 85;
1409 : 5b;
140A : 20;
140B : ee;
140C : d4;
140D : a5;
140E : a1;
140F : 85;
1410 : 00;
1411 : 8d;
1412 : 03;
1413 : 02;
1414 : 20;
1415 : d1;
1416 : ea;
1417 : a9;
1418 : 00;
1419 : 85;
141A : 04;
141B : a5;
141C : 02;
141D : c9;
141E : 54;
141F : f0;
1420 : 05;
1421 : a9;
1422 : 00;
1423 : 4c;
1424 : 2c;
1425 : d4;
1426 : a9;
1427 : 24;
1428 : 85;
1429 : 02;
142A : a9;
142B : 01;
142C : 20;
142D : 96;
142E : f0;
142F : 4c;
1430 : cf;
1431 : d4;
1432 : a5;
1433 : 5a;
1434 : f0;
1435 : 0f;
1436 : 20;
1437 : e1;
1438 : ea;
1439 : e6;
143A : 01;
143B : 20;
143C : 0a;
143D : d5;
143E : c9;
143F : 01;
1440 : f0;
1441 : 03;
1442 : 4c;
1443 : cf;
1444 : d4;
1445 : a9;
1446 : 24;
1447 : 85;
1448 : 0a;
1449 : a9;
144A : 49;
144B : 85;
144C : 0b;
144D : 20;
144E : e6;
144F : d9;
1450 : d0;
1451 : 08;
1452 : ad;
1453 : 00;
1454 : 02;
1455 : 85;
1456 : 01;
1457 : 4c;
1458 : cf;
1459 : d4;
145A : 20;
145B : 0a;
145C : d5;
145D : f0;
145E : 2c;
145F : c9;
1460 : 02;
1461 : f0;
1462 : 28;
1463 : a5;
1464 : 5b;
1465 : f0;
1466 : 0a;
1467 : 38;
1468 : e9;
1469 : 01;
146A : c9;
146B : 01;
146C : 90;
146D : 08;
146E : 4c;
146F : 78;
1470 : d4;
1471 : a9;
1472 : 0d;
1473 : 4c;
1474 : 78;
1475 : d4;
1476 : a9;
1477 : 01;
1478 : 85;
1479 : 5b;
147A : aa;
147B : ca;
147C : bd;
147D : 47;
147E : c1;
147F : 85;
1480 : 02;
1481 : a9;
1482 : 03;
1483 : 85;
1484 : 5c;
1485 : 20;
1486 : f9;
1487 : d4;
1488 : 4c;
1489 : b1;
148A : d4;
148B : a5;
148C : 5c;
148D : f0;
148E : 0e;
148F : 18;
1490 : 69;
1491 : 01;
1492 : c9;
1493 : 06;
1494 : f0;
1495 : 09;
1496 : 90;
1497 : 07;
1498 : a9;
1499 : 01;
149A : 4c;
149B : 9f;
149C : d4;
149D : a9;
149E : 01;
149F : 85;
14A0 : 5c;
14A1 : 38;
14A2 : e9;
14A3 : 01;
14A4 : aa;
14A5 : bd;
14A6 : 59;
14A7 : c1;
14A8 : 85;
14A9 : 02;
14AA : a9;
14AB : 00;
14AC : 85;
14AD : 5b;
14AE : 20;
14AF : f9;
14B0 : d4;
14B1 : a5;
14B2 : a1;
14B3 : 8d;
14B4 : 03;
14B5 : 02;
14B6 : 85;
14B7 : 00;
14B8 : 20;
14B9 : cd;
14BA : ea;
14BB : a5;
14BC : 02;
14BD : c9;
14BE : 54;
14BF : f0;
14C0 : 05;
14C1 : a9;
14C2 : 00;
14C3 : 4c;
14C4 : cc;
14C5 : d4;
14C6 : a9;
14C7 : 24;
14C8 : 85;
14C9 : 02;
14CA : a9;
14CB : 01;
14CC : 20;
14CD : 96;
14CE : f0;
14CF : 20;
14D0 : cb;
14D1 : d2;
14D2 : 85;
14D3 : 5a;
14D4 : f0;
14D5 : 17;
14D6 : ad;
14D7 : 00;
14D8 : 02;
14D9 : 18;
14DA : 69;
14DB : 08;
14DC : 20;
14DD : 16;
14DE : e0;
14DF : 85;
14E0 : 59;
14E1 : a9;
14E2 : 01;
14E3 : 85;
14E4 : 96;
14E5 : a9;
14E6 : 00;
14E7 : 85;
14E8 : 5c;
14E9 : 85;
14EA : 5b;
14EB : 85;
14EC : 85;
14ED : 60;
14EE : ad;
14EF : 00;
14F0 : 02;
14F1 : 38;
14F2 : e9;
14F3 : 01;
14F4 : 85;
14F5 : 01;
14F6 : 4c;
14F7 : 01;
14F8 : d5;
14F9 : ad;
14FA : 00;
14FB : 02;
14FC : 18;
14FD : 69;
14FE : 01;
14FF : 85;
1500 : 01;
1501 : 29;
1502 : 06;
1503 : d0;
1504 : 04;
1505 : a9;
1506 : 08;
1507 : 85;
1508 : ff;
1509 : 60;
150A : 20;
150B : e1;
150C : ea;
150D : a9;
150E : 2c;
150F : 20;
1510 : e8;
1511 : ef;
1512 : a5;
1513 : 53;
1514 : 38;
1515 : e9;
1516 : 01;
1517 : 0a;
1518 : aa;
1519 : bd;
151A : 8b;
151B : c4;
151C : 85;
151D : 04;
151E : bd;
151F : 8c;
1520 : c4;
1521 : 85;
1522 : 05;
1523 : a9;
1524 : 43;
1525 : 85;
1526 : 06;
1527 : a9;
1528 : c1;
1529 : 85;
152A : 07;
152B : 20;
152C : ad;
152D : d8;
152E : 85;
152F : 08;
1530 : a5;
1531 : 53;
1532 : c9;
1533 : 01;
1534 : d0;
1535 : 0e;
1536 : a9;
1537 : 1e;
1538 : 20;
1539 : 31;
153A : c8;
153B : 20;
153C : ad;
153D : d8;
153E : f0;
153F : 04;
1540 : a9;
1541 : 02;
1542 : 85;
1543 : 08;
1544 : a5;
1545 : 08;
1546 : 60;
1547 : a9;
1548 : ff;
1549 : 20;
154A : e6;
154B : d9;
154C : c9;
154D : 00;
154E : d0;
154F : 01;
1550 : 60;
1551 : a5;
1552 : 94;
1553 : c9;
1554 : f0;
1555 : 90;
1556 : 03;
1557 : 4c;
1558 : 0d;
1559 : d6;
155A : 20;
155B : 90;
155C : d9;
155D : f0;
155E : 11;
155F : a5;
1560 : 56;
1561 : c9;
1562 : 01;
1563 : d0;
1564 : 05;
1565 : a9;
1566 : 02;
1567 : 4c;
1568 : 6c;
1569 : d5;
156A : a9;
156B : 01;
156C : 85;
156D : 56;
156E : 85;
156F : 57;
1570 : ad;
1571 : 00;
1572 : 02;
1573 : 85;
1574 : 01;
1575 : a9;
1576 : 00;
1577 : 20;
1578 : 72;
1579 : ef;
157A : a5;
157B : 01;
157C : 8d;
157D : 00;
157E : 02;
157F : a5;
1580 : 56;
1581 : c9;
1582 : 01;
1583 : f0;
1584 : 07;
1585 : c9;
1586 : 02;
1587 : f0;
1588 : 18;
1589 : 4c;
158A : b3;
158B : d5;
158C : a5;
158D : 9e;
158E : f0;
158F : 0a;
1590 : ee;
1591 : 03;
1592 : 02;
1593 : a9;
1594 : 00;
1595 : 85;
1596 : 9e;
1597 : 4c;
1598 : b3;
1599 : d5;
159A : a9;
159B : 01;
159C : 85;
159D : 9e;
159E : 4c;
159F : b3;
15A0 : d5;
15A1 : a5;
15A2 : 9e;
15A3 : f0;
15A4 : 0a;
15A5 : ce;
15A6 : 03;
15A7 : 02;
15A8 : a9;
15A9 : 00;
15AA : 85;
15AB : 9e;
15AC : 4c;
15AD : b3;
15AE : d5;
15AF : a9;
15B0 : 01;
15B1 : 85;
15B2 : 9e;
15B3 : ad;
15B4 : 03;
15B5 : 02;
15B6 : 85;
15B7 : 00;
15B8 : 20;
15B9 : 00;
15BA : d8;
15BB : a5;
15BC : 94;
15BD : f0;
15BE : 23;
15BF : a5;
15C0 : 01;
15C1 : 38;
15C2 : e9;
15C3 : 10;
15C4 : c5;
15C5 : 95;
15C6 : 90;
15C7 : 04;
15C8 : a9;
15C9 : ff;
15CA : 85;
15CB : 95;
15CC : 20;
15CD : cb;
15CE : d2;
15CF : 85;
15D0 : 5a;
15D1 : f0;
15D2 : 1e;
15D3 : a5;
15D4 : 4b;
15D5 : 38;
15D6 : e9;
15D7 : 11;
15D8 : 8d;
15D9 : 00;
15DA : 02;
15DB : a9;
15DC : 01;
15DD : 85;
15DE : 5a;
15DF : 4c;
15E0 : f6;
15E1 : d5;
15E2 : a9;
15E3 : 04;
15E4 : 85;
15E5 : ff;
15E6 : a9;
15E7 : 01;
15E8 : 85;
15E9 : 94;
15EA : a5;
15EB : 01;
15EC : 85;
15ED : 95;
15EE : 4c;
15EF : f1;
15F0 : d5;
15F1 : a9;
15F2 : 28;
15F3 : 4c;
15F4 : 70;
15F5 : f0;
15F6 : 20;
15F7 : e1;
15F8 : ea;
15F9 : a9;
15FA : 2c;
15FB : 85;
15FC : 02;
15FD : 20;
15FE : cd;
15FF : ea;
1600 : a5;
1601 : 57;
1602 : 29;
1603 : 03;
1604 : 4a;
1605 : 20;
1606 : 96;
1607 : f0;
1608 : a9;
1609 : f0;
160A : 85;
160B : 94;
160C : 60;
160D : e6;
160E : 94;
160F : a5;
1610 : 94;
1611 : c9;
1612 : f4;
1613 : d0;
1614 : 3a;
1615 : a5;
1616 : 95;
1617 : c9;
1618 : ff;
1619 : f0;
161A : 27;
161B : a9;
161C : 04;
161D : 20;
161E : 70;
161F : f0;
1620 : a9;
1621 : 00;
1622 : 8d;
1623 : 2c;
1624 : 04;
1625 : 85;
1626 : 94;
1627 : 85;
1628 : 95;
1629 : a9;
162A : 01;
162B : 85;
162C : 96;
162D : a5;
162E : a0;
162F : f0;
1630 : 1e;
1631 : a9;
1632 : 01;
1633 : 85;
1634 : 9f;
1635 : a9;
1636 : 4b;
1637 : 85;
1638 : 3f;
1639 : a9;
163A : 0a;
163B : 85;
163C : 96;
163D : a9;
163E : 40;
163F : 85;
1640 : fc;
1641 : 60;
1642 : a9;
1643 : 00;
1644 : 8d;
1645 : 2c;
1646 : 04;
1647 : 85;
1648 : 94;
1649 : 85;
164A : 95;
164B : a9;
164C : ff;
164D : 85;
164E : 96;
164F : 60;
1650 : a9;
1651 : fe;
1652 : 8d;
1653 : 72;
1654 : 04;
1655 : 8d;
1656 : 73;
1657 : 04;
1658 : a2;
1659 : 00;
165A : a0;
165B : 60;
165C : b9;
165D : 00;
165E : 02;
165F : c9;
1660 : ff;
1661 : f0;
1662 : 0f;
1663 : 9d;
1664 : 61;
1665 : 04;
1666 : b9;
1667 : 03;
1668 : 02;
1669 : 38;
166A : e9;
166B : 08;
166C : 9d;
166D : 60;
166E : 04;
166F : 4c;
1670 : 7a;
1671 : d6;
1672 : a9;
1673 : 00;
1674 : 9d;
1675 : 61;
1676 : 04;
1677 : 9d;
1678 : 60;
1679 : 04;
167A : 98;
167B : 18;
167C : 69;
167D : 08;
167E : a8;
167F : e8;
1680 : e8;
1681 : e8;
1682 : c0;
1683 : 90;
1684 : d0;
1685 : d6;
1686 : a9;
1687 : 20;
1688 : 20;
1689 : 31;
168A : c8;
168B : 20;
168C : ad;
168D : d8;
168E : f0;
168F : 06;
1690 : a9;
1691 : 08;
1692 : 85;
1693 : 96;
1694 : a9;
1695 : 01;
1696 : 60;
1697 : a9;
1698 : ff;
1699 : 20;
169A : e6;
169B : d9;
169C : f0;
169D : 27;
169E : 20;
169F : e1;
16A0 : ea;
16A1 : e6;
16A2 : 01;
16A3 : e6;
16A4 : 01;
16A5 : a5;
16A6 : 57;
16A7 : c9;
16A8 : 02;
16A9 : f0;
16AA : 06;
16AB : ad;
16AC : 01;
16AD : 02;
16AE : 4c;
16AF : b7;
16B0 : d6;
16B1 : ad;
16B2 : 01;
16B3 : 02;
16B4 : 38;
16B5 : e9;
16B6 : 02;
16B7 : 85;
16B8 : 02;
16B9 : 20;
16BA : 75;
16BB : f0;
16BC : 20;
16BD : cb;
16BE : d2;
16BF : f0;
16C0 : 04;
16C1 : a9;
16C2 : ff;
16C3 : 85;
16C4 : 96;
16C5 : 60;
16C6 : a5;
16C7 : 3f;
16C8 : d0;
16C9 : 03;
16CA : 4c;
16CB : bf;
16CC : d7;
16CD : a9;
16CE : db;
16CF : 85;
16D0 : 0a;
16D1 : a9;
16D2 : 36;
16D3 : 20;
16D4 : e8;
16D5 : d9;
16D6 : d0;
16D7 : 01;
16D8 : 60;
16D9 : 20;
16DA : 90;
16DB : d9;
16DC : d0;
16DD : 0a;
16DE : a5;
16DF : 56;
16E0 : c9;
16E1 : 01;
16E2 : f0;
16E3 : 26;
16E4 : c9;
16E5 : 02;
16E6 : f0;
16E7 : 28;
16E8 : a5;
16E9 : a2;
16EA : 0a;
16EB : 85;
16EC : a2;
16ED : f0;
16EE : 03;
16EF : 4c;
16F0 : 53;
16F1 : d7;
16F2 : a9;
16F3 : 20;
16F4 : 85;
16F5 : a2;
16F6 : a5;
16F7 : 9f;
16F8 : f0;
16F9 : 04;
16FA : c9;
16FB : 04;
16FC : 90;
16FD : 05;
16FE : a9;
16FF : 02;
1700 : 4c;
1701 : 05;
1702 : d7;
1703 : a9;
1704 : 05;
1705 : 85;
1706 : 9f;
1707 : 4c;
1708 : 53;
1709 : d7;
170A : ee;
170B : 03;
170C : 02;
170D : 4c;
170E : 13;
170F : d7;
1710 : ce;
1711 : 03;
1712 : 02;
1713 : 20;
1714 : cb;
1715 : d2;
1716 : 85;
1717 : 5a;
1718 : ad;
1719 : 00;
171A : 02;
171B : 20;
171C : 16;
171D : e0;
171E : 85;
171F : 59;
1720 : 20;
1721 : eb;
1722 : d8;
1723 : f0;
1724 : 19;
1725 : a6;
1726 : 53;
1727 : e0;
1728 : 01;
1729 : d0;
172A : 07;
172B : 18;
172C : 6d;
172D : 00;
172E : 02;
172F : 8d;
1730 : 00;
1731 : 02;
1732 : 20;
1733 : 6a;
1734 : d3;
1735 : f0;
1736 : 07;
1737 : a9;
1738 : 08;
1739 : 85;
173A : 96;
173B : 4c;
173C : bf;
173D : d7;
173E : a9;
173F : 08;
1740 : 85;
1741 : ff;
1742 : a5;
1743 : 9f;
1744 : f0;
1745 : 09;
1746 : c9;
1747 : 06;
1748 : b0;
1749 : 05;
174A : e6;
174B : 9f;
174C : 4c;
174D : 53;
174E : d7;
174F : a9;
1750 : 01;
1751 : 85;
1752 : 9f;
1753 : a6;
1754 : 9f;
1755 : ca;
1756 : bd;
1757 : a2;
1758 : c1;
1759 : 20;
175A : 70;
175B : f0;
175C : a5;
175D : 9f;
175E : 4a;
175F : 4a;
1760 : f0;
1761 : 05;
1762 : a9;
1763 : 00;
1764 : 4c;
1765 : 69;
1766 : d7;
1767 : a9;
1768 : 01;
1769 : f0;
176A : 1b;
176B : a9;
176C : 04;
176D : 18;
176E : 6d;
176F : 03;
1770 : 02;
1771 : 85;
1772 : 00;
1773 : ad;
1774 : 00;
1775 : 02;
1776 : 38;
1777 : e9;
1778 : 0e;
1779 : 85;
177A : 01;
177B : a9;
177C : 21;
177D : 85;
177E : 03;
177F : a9;
1780 : f6;
1781 : 85;
1782 : 02;
1783 : 4c;
1784 : ad;
1785 : d7;
1786 : a5;
1787 : 57;
1788 : c9;
1789 : 01;
178A : d0;
178B : 09;
178C : a9;
178D : 0e;
178E : 18;
178F : 6d;
1790 : 03;
1791 : 02;
1792 : 4c;
1793 : 9b;
1794 : d7;
1795 : ad;
1796 : 03;
1797 : 02;
1798 : 38;
1799 : e9;
179A : 0e;
179B : 85;
179C : 00;
179D : a9;
179E : 06;
179F : 18;
17A0 : 6d;
17A1 : 00;
17A2 : 02;
17A3 : 85;
17A4 : 01;
17A5 : a9;
17A6 : 12;
17A7 : 85;
17A8 : 03;
17A9 : a9;
17AA : fa;
17AB : 85;
17AC : 02;
17AD : a5;
17AE : a0;
17AF : c9;
17B0 : 01;
17B1 : f0;
17B2 : 05;
17B3 : a9;
17B4 : d8;
17B5 : 4c;
17B6 : ba;
17B7 : d7;
17B8 : a9;
17B9 : d0;
17BA : 85;
17BB : 04;
17BC : 4c;
17BD : 78;
17BE : f0;
17BF : a9;
17C0 : 12;
17C1 : 85;
17C2 : 03;
17C3 : a5;
17C4 : a0;
17C5 : c9;
17C6 : 01;
17C7 : f0;
17C8 : 0a;
17C9 : a9;
17CA : 00;
17CB : 8d;
17CC : 52;
17CD : 04;
17CE : a9;
17CF : d8;
17D0 : 4c;
17D1 : da;
17D2 : d7;
17D3 : a9;
17D4 : 00;
17D5 : 8d;
17D6 : 51;
17D7 : 04;
17D8 : a9;
17D9 : d0;
17DA : 85;
17DB : 04;
17DC : 20;
17DD : 94;
17DE : f0;
17DF : 20;
17E0 : f2;
17E1 : d7;
17E2 : a9;
17E3 : 01;
17E4 : 85;
17E5 : 96;
17E6 : a9;
17E7 : 00;
17E8 : 85;
17E9 : a0;
17EA : 85;
17EB : 9f;
17EC : ad;
17ED : 19;
17EE : 05;
17EF : 85;
17F0 : fc;
17F1 : 60;
17F2 : a9;
17F3 : 19;
17F4 : 85;
17F5 : 00;
17F6 : a9;
17F7 : 3f;
17F8 : 85;
17F9 : 01;
17FA : a9;
17FB : 4e;
17FC : 20;
17FD : 15;
17FE : c8;
17FF : 60;
1800 : a5;
1801 : a0;
1802 : f0;
1803 : 01;
1804 : 60;
1805 : a4;
1806 : 53;
1807 : c0;
1808 : 03;
1809 : d0;
180A : 03;
180B : 4c;
180C : a8;
180D : d8;
180E : ad;
180F : 03;
1810 : 02;
1811 : c0;
1812 : 01;
1813 : f0;
1814 : 09;
1815 : c9;
1816 : 88;
1817 : f0;
1818 : 0e;
1819 : 90;
181A : 0c;
181B : 4c;
181C : a8;
181D : d8;
181E : c9;
181F : 28;
1820 : f0;
1821 : 05;
1822 : 90;
1823 : 03;
1824 : 4c;
1825 : a8;
1826 : d8;
1827 : ad;
1828 : 00;
1829 : 02;
182A : 18;
182B : 69;
182C : 08;
182D : 20;
182E : 16;
182F : e0;
1830 : 85;
1831 : 59;
1832 : a5;
1833 : 53;
1834 : 38;
1835 : e9;
1836 : 01;
1837 : 0a;
1838 : aa;
1839 : a5;
183A : 59;
183B : dd;
183C : a8;
183D : c1;
183E : f0;
183F : 09;
1840 : e8;
1841 : dd;
1842 : a8;
1843 : c1;
1844 : f0;
1845 : 03;
1846 : 4c;
1847 : a8;
1848 : d8;
1849 : 8a;
184A : 29;
184B : 01;
184C : f0;
184D : 19;
184E : ad;
184F : 52;
1850 : 04;
1851 : d0;
1852 : 03;
1853 : 4c;
1854 : a8;
1855 : d8;
1856 : a9;
1857 : 02;
1858 : 85;
1859 : a0;
185A : ad;
185B : d8;
185C : 02;
185D : 85;
185E : 01;
185F : ad;
1860 : db;
1861 : 02;
1862 : 85;
1863 : 00;
1864 : 4c;
1865 : 7d;
1866 : d8;
1867 : ad;
1868 : 51;
1869 : 04;
186A : d0;
186B : 03;
186C : 4c;
186D : a8;
186E : d8;
186F : a9;
1870 : 01;
1871 : 85;
1872 : a0;
1873 : ad;
1874 : d0;
1875 : 02;
1876 : 85;
1877 : 01;
1878 : ad;
1879 : d3;
187A : 02;
187B : 85;
187C : 00;
187D : a9;
187E : 2e;
187F : 20;
1880 : e8;
1881 : ef;
1882 : 20;
1883 : e1;
1884 : ea;
1885 : a9;
1886 : 30;
1887 : 20;
1888 : 47;
1889 : c8;
188A : 20;
188B : ef;
188C : ef;
188D : f0;
188E : 19;
188F : a5;
1890 : fc;
1891 : 8d;
1892 : 19;
1893 : 05;
1894 : a5;
1895 : 53;
1896 : c9;
1897 : 04;
1898 : d0;
1899 : 0d;
189A : a9;
189B : 19;
189C : 85;
189D : 00;
189E : a9;
189F : 3f;
18A0 : 85;
18A1 : 01;
18A2 : a9;
18A3 : 46;
18A4 : 20;
18A5 : 15;
18A6 : c8;
18A7 : 60;
18A8 : a9;
18A9 : 00;
18AA : 85;
18AB : a0;
18AC : 60;
18AD : a9;
18AE : f3;
18AF : 85;
18B0 : 0b;
18B1 : a9;
18B2 : 00;
18B3 : 85;
18B4 : 86;
18B5 : a0;
18B6 : 00;
18B7 : b1;
18B8 : 04;
18B9 : 85;
18BA : 00;
18BB : c8;
18BC : b1;
18BD : 04;
18BE : 85;
18BF : 01;
18C0 : c8;
18C1 : b1;
18C2 : 04;
18C3 : 18;
18C4 : 65;
18C5 : 06;
18C6 : 85;
18C7 : 02;
18C8 : a5;
18C9 : 07;
18CA : 69;
18CB : 00;
18CC : 85;
18CD : 03;
18CE : 84;
18CF : 86;
18D0 : 20;
18D1 : f3;
18D2 : ef;
18D3 : d0;
18D4 : 0c;
18D5 : a4;
18D6 : 86;
18D7 : c8;
18D8 : b1;
18D9 : 04;
18DA : c9;
18DB : fe;
18DC : f0;
18DD : 08;
18DE : 4c;
18DF : b9;
18E0 : d8;
18E1 : a9;
18E2 : 01;
18E3 : 4c;
18E4 : e8;
18E5 : d8;
18E6 : a9;
18E7 : 00;
18E8 : 85;
18E9 : 0c;
18EA : 60;
18EB : a5;
18EC : 5a;
18ED : d0;
18EE : 28;
18EF : a5;
18F0 : 59;
18F1 : f0;
18F2 : 24;
18F3 : 29;
18F4 : 01;
18F5 : d0;
18F6 : 0d;
18F7 : a5;
18F8 : 56;
18F9 : c9;
18FA : 01;
18FB : f0;
18FC : 17;
18FD : c9;
18FE : 02;
18FF : f0;
1900 : 10;
1901 : 4c;
1902 : 17;
1903 : d9;
1904 : a5;
1905 : 56;
1906 : c9;
1907 : 01;
1908 : f0;
1909 : 07;
190A : c9;
190B : 02;
190C : f0;
190D : 06;
190E : 4c;
190F : 17;
1910 : d9;
1911 : a9;
1912 : ff;
1913 : 60;
1914 : a9;
1915 : 01;
1916 : 60;
1917 : a9;
1918 : 00;
1919 : 60;
191A : ad;
191B : 00;
191C : 02;
191D : 18;
191E : 69;
191F : 08;
1920 : 20;
1921 : 16;
1922 : e0;
1923 : 85;
1924 : 59;
1925 : c9;
1926 : 01;
1927 : f0;
1928 : 0f;
1929 : a2;
192A : 02;
192B : a9;
192C : 0c;
192D : e4;
192E : 59;
192F : f0;
1930 : 0a;
1931 : 18;
1932 : 69;
1933 : 06;
1934 : e8;
1935 : 4c;
1936 : 2d;
1937 : d9;
1938 : 38;
1939 : e9;
193A : 01;
193B : aa;
193C : a9;
193D : 00;
193E : 85;
193F : 86;
1940 : bd;
1941 : 8c;
1942 : c0;
1943 : 85;
1944 : 00;
1945 : e8;
1946 : bd;
1947 : 8c;
1948 : c0;
1949 : 85;
194A : 01;
194B : e8;
194C : bd;
194D : 8c;
194E : c0;
194F : 18;
1950 : 65;
1951 : 06;
1952 : 85;
1953 : 02;
1954 : a5;
1955 : 07;
1956 : 85;
1957 : 03;
1958 : e8;
1959 : bd;
195A : 8c;
195B : c0;
195C : 85;
195D : 08;
195E : e8;
195F : bd;
1960 : 8c;
1961 : c0;
1962 : 85;
1963 : 09;
1964 : 20;
1965 : ef;
1966 : ef;
1967 : d0;
1968 : 22;
1969 : a5;
196A : 00;
196B : 18;
196C : 65;
196D : 08;
196E : 85;
196F : 00;
1970 : c6;
1971 : 01;
1972 : e6;
1973 : 86;
1974 : a5;
1975 : 09;
1976 : c5;
1977 : 86;
1978 : d0;
1979 : ea;
197A : e8;
197B : bd;
197C : 8c;
197D : c0;
197E : c9;
197F : fe;
1980 : f0;
1981 : 04;
1982 : e8;
1983 : 4c;
1984 : 3c;
1985 : d9;
1986 : a9;
1987 : 00;
1988 : 4c;
1989 : 8d;
198A : d9;
198B : a9;
198C : 01;
198D : 85;
198E : 5a;
198F : 60;
1990 : a5;
1991 : 56;
1992 : c9;
1993 : 01;
1994 : f0;
1995 : 07;
1996 : c9;
1997 : 02;
1998 : f0;
1999 : 15;
199A : 4c;
199B : e3;
199C : d9;
199D : a5;
199E : 53;
199F : 0a;
19A0 : aa;
19A1 : ca;
19A2 : bd;
19A3 : b4;
19A4 : c1;
19A5 : cd;
19A6 : 03;
19A7 : 02;
19A8 : f0;
19A9 : 36;
19AA : 90;
19AB : 34;
19AC : 4c;
19AD : e3;
19AE : d9;
19AF : a5;
19B0 : 53;
19B1 : 0a;
19B2 : aa;
19B3 : ca;
19B4 : ca;
19B5 : bd;
19B6 : b4;
19B7 : c1;
19B8 : cd;
19B9 : 03;
19BA : 02;
19BB : b0;
19BC : 23;
19BD : a5;
19BE : 53;
19BF : c9;
19C0 : 04;
19C1 : f0;
19C2 : 20;
19C3 : a6;
19C4 : 59;
19C5 : c9;
19C6 : 03;
19C7 : f0;
19C8 : 07;
19C9 : e0;
19CA : 06;
19CB : d0;
19CC : 16;
19CD : 4c;
19CE : d4;
19CF : d9;
19D0 : e0;
19D1 : 05;
19D2 : d0;
19D3 : 0f;
19D4 : ad;
19D5 : 03;
19D6 : 02;
19D7 : c9;
19D8 : 68;
19D9 : f0;
19DA : 05;
19DB : 90;
19DC : 03;
19DD : 4c;
19DE : e3;
19DF : d9;
19E0 : a9;
19E1 : 01;
19E2 : 60;
19E3 : a9;
19E4 : 00;
19E5 : 60;
19E6 : 85;
19E7 : 0a;
19E8 : 85;
19E9 : 0b;
19EA : e6;
19EB : 88;
19EC : a5;
19ED : 88;
19EE : c9;
19EF : 0f;
19F0 : b0;
19F1 : 03;
19F2 : 4c;
19F3 : f9;
19F4 : d9;
19F5 : a9;
19F6 : 00;
19F7 : 85;
19F8 : 88;
19F9 : c9;
19FA : 08;
19FB : b0;
19FC : 09;
19FD : aa;
19FE : bd;
19FF : bc;
1A00 : c1;
1A01 : 25;
1A02 : 0a;
1A03 : 4c;
1A04 : 0f;
1A05 : da;
1A06 : 38;
1A07 : e9;
1A08 : 08;
1A09 : aa;
1A0A : bd;
1A0B : bc;
1A0C : c1;
1A0D : 25;
1A0E : 0b;
1A0F : f0;
1A10 : 02;
1A11 : a9;
1A12 : 01;
1A13 : 85;
1A14 : be;
1A15 : 60;
1A16 : 20;
1A17 : 66;
1A18 : e1;
1A19 : a9;
1A1A : 00;
1A1B : 85;
1A1C : 5d;
1A1D : 20;
1A1E : d5;
1A1F : ef;
1A20 : bd;
1A21 : 00;
1A22 : 02;
1A23 : c9;
1A24 : ff;
1A25 : d0;
1A26 : 16;
1A27 : a5;
1A28 : 36;
1A29 : d0;
1A2A : 15;
1A2B : a9;
1A2C : 80;
1A2D : a6;
1A2E : 5d;
1A2F : 95;
1A30 : 5e;
1A31 : a9;
1A32 : 10;
1A33 : 85;
1A34 : 37;
1A35 : 20;
1A36 : f7;
1A37 : ea;
1A38 : bd;
1A39 : 43;
1A3A : c4;
1A3B : 85;
1A3C : 36;
1A3D : 20;
1A3E : 4c;
1A3F : da;
1A40 : a5;
1A41 : 5d;
1A42 : 18;
1A43 : 69;
1A44 : 01;
1A45 : 85;
1A46 : 5d;
1A47 : c9;
1A48 : 09;
1A49 : d0;
1A4A : d2;
1A4B : 60;
1A4C : a6;
1A4D : 5d;
1A4E : b5;
1A4F : 5e;
1A50 : c9;
1A51 : 80;
1A52 : f0;
1A53 : 29;
1A54 : c9;
1A55 : 81;
1A56 : f0;
1A57 : 28;
1A58 : c9;
1A59 : 01;
1A5A : f0;
1A5B : 27;
1A5C : c9;
1A5D : 02;
1A5E : f0;
1A5F : 26;
1A60 : c9;
1A61 : c0;
1A62 : f0;
1A63 : 25;
1A64 : c9;
1A65 : c1;
1A66 : f0;
1A67 : 21;
1A68 : c9;
1A69 : c2;
1A6A : f0;
1A6B : 1d;
1A6C : c9;
1A6D : 08;
1A6E : f0;
1A6F : 1f;
1A70 : c9;
1A71 : 10;
1A72 : f0;
1A73 : 1e;
1A74 : c9;
1A75 : 20;
1A76 : f0;
1A77 : 1d;
1A78 : c9;
1A79 : 40;
1A7A : f0;
1A7B : 1c;
1A7C : 60;
1A7D : 4c;
1A7E : 9c;
1A7F : da;
1A80 : 4c;
1A81 : 00;
1A82 : db;
1A83 : 4c;
1A84 : 2c;
1A85 : db;
1A86 : 4c;
1A87 : 30;
1A88 : dc;
1A89 : bd;
1A8A : 21;
1A8B : 04;
1A8C : 4c;
1A8D : 8b;
1A8E : dd;
1A8F : 4c;
1A90 : 69;
1A91 : dc;
1A92 : 4c;
1A93 : d0;
1A94 : dc;
1A95 : 4c;
1A96 : 32;
1A97 : dd;
1A98 : 20;
1A99 : 07;
1A9A : df;
1A9B : 60;
1A9C : 20;
1A9D : d5;
1A9E : ef;
1A9F : a9;
1AA0 : 30;
1AA1 : 85;
1AA2 : 00;
1AA3 : 85;
1AA4 : 01;
1AA5 : a9;
1AA6 : 90;
1AA7 : 85;
1AA8 : 02;
1AA9 : 86;
1AAA : 04;
1AAB : 20;
1AAC : db;
1AAD : ea;
1AAE : a5;
1AAF : 37;
1AB0 : d0;
1AB1 : 4d;
1AB2 : a9;
1AB3 : 81;
1AB4 : a6;
1AB5 : 5d;
1AB6 : 95;
1AB7 : 5e;
1AB8 : a9;
1AB9 : 00;
1ABA : 95;
1ABB : 8a;
1ABC : a5;
1ABD : ad;
1ABE : f0;
1ABF : 03;
1AC0 : 4c;
1AC1 : d5;
1AC2 : da;
1AC3 : a5;
1AC4 : 5d;
1AC5 : d0;
1AC6 : 38;
1AC7 : a9;
1AC8 : c0;
1AC9 : a6;
1ACA : 5d;
1ACB : 95;
1ACC : 5e;
1ACD : a9;
1ACE : 01;
1ACF : 9d;
1AD0 : 21;
1AD1 : 04;
1AD2 : 4c;
1AD3 : f7;
1AD4 : da;
1AD5 : a5;
1AD6 : 43;
1AD7 : d0;
1AD8 : 26;
1AD9 : a5;
1ADA : 5d;
1ADB : d0;
1ADC : 22;
1ADD : a9;
1ADE : c0;
1ADF : a6;
1AE0 : 5d;
1AE1 : 95;
1AE2 : 5e;
1AE3 : bd;
1AE4 : 21;
1AE5 : 04;
1AE6 : c9;
1AE7 : 01;
1AE8 : d0;
1AE9 : 08;
1AEA : a9;
1AEB : 03;
1AEC : 9d;
1AED : 21;
1AEE : 04;
1AEF : 4c;
1AF0 : f7;
1AF1 : da;
1AF2 : a9;
1AF3 : 01;
1AF4 : 9d;
1AF5 : 21;
1AF6 : 04;
1AF7 : 20;
1AF8 : f7;
1AF9 : ea;
1AFA : bd;
1AFB : 4d;
1AFC : c4;
1AFD : 85;
1AFE : 43;
1AFF : 60;
1B00 : a9;
1B01 : 55;
1B02 : 20;
1B03 : e4;
1B04 : df;
1B05 : d0;
1B06 : 1a;
1B07 : 20;
1B08 : d5;
1B09 : ef;
1B0A : a9;
1B0B : 4d;
1B0C : 85;
1B0D : 00;
1B0E : a9;
1B0F : 32;
1B10 : 85;
1B11 : 01;
1B12 : a9;
1B13 : 84;
1B14 : 85;
1B15 : 02;
1B16 : 86;
1B17 : 04;
1B18 : 20;
1B19 : db;
1B1A : ea;
1B1B : ee;
1B1C : 15;
1B1D : 05;
1B1E : 4c;
1B1F : 2b;
1B20 : db;
1B21 : a6;
1B22 : 5d;
1B23 : a9;
1B24 : 01;
1B25 : 95;
1B26 : 5e;
1B27 : a9;
1B28 : 84;
1B29 : 95;
1B2A : 72;
1B2B : 60;
1B2C : a9;
1B2D : ff;
1B2E : 20;
1B2F : e4;
1B30 : df;
1B31 : d0;
1B32 : 01;
1B33 : 60;
1B34 : 20;
1B35 : d5;
1B36 : ef;
1B37 : 48;
1B38 : 20;
1B39 : ec;
1B3A : ea;
1B3B : a5;
1B3C : 01;
1B3D : 20;
1B3E : 16;
1B3F : e0;
1B40 : a4;
1B41 : 5d;
1B42 : 99;
1B43 : 68;
1B44 : 00;
1B45 : 29;
1B46 : 01;
1B47 : d0;
1B48 : 05;
1B49 : e6;
1B4A : 00;
1B4B : 4c;
1B4C : 50;
1B4D : db;
1B4E : c6;
1B4F : 00;
1B50 : a5;
1B51 : 00;
1B52 : 20;
1B53 : 5a;
1B54 : e0;
1B55 : 85;
1B56 : 7d;
1B57 : 20;
1B58 : 48;
1B59 : e0;
1B5A : 18;
1B5B : 65;
1B5C : 01;
1B5D : 85;
1B5E : 01;
1B5F : 20;
1B60 : ee;
1B61 : db;
1B62 : a6;
1B63 : 5d;
1B64 : b5;
1B65 : 72;
1B66 : 20;
1B67 : d4;
1B68 : ea;
1B69 : 68;
1B6A : aa;
1B6B : 20;
1B6C : 80;
1B6D : f0;
1B6E : a5;
1B6F : 00;
1B70 : 20;
1B71 : ae;
1B72 : e0;
1B73 : f0;
1B74 : 37;
1B75 : 20;
1B76 : f7;
1B77 : ea;
1B78 : bd;
1B79 : 48;
1B7A : c4;
1B7B : 25;
1B7C : 19;
1B7D : d0;
1B7E : 2d;
1B7F : a6;
1B80 : 5d;
1B81 : b5;
1B82 : 68;
1B83 : aa;
1B84 : ca;
1B85 : b5;
1B86 : 7e;
1B87 : c9;
1B88 : 04;
1B89 : b0;
1B8A : 21;
1B8B : a5;
1B8C : 96;
1B8D : c9;
1B8E : 02;
1B8F : d0;
1B90 : 12;
1B91 : a6;
1B92 : 04;
1B93 : bd;
1B94 : 00;
1B95 : 02;
1B96 : cd;
1B97 : 00;
1B98 : 02;
1B99 : b0;
1B9A : 08;
1B9B : 18;
1B9C : 69;
1B9D : 0f;
1B9E : cd;
1B9F : 00;
1BA0 : 02;
1BA1 : b0;
1BA2 : 09;
1BA3 : a9;
1BA4 : 02;
1BA5 : a6;
1BA6 : 5d;
1BA7 : 95;
1BA8 : 5e;
1BA9 : d6;
1BAA : 68;
1BAB : 60;
1BAC : a5;
1BAD : 00;
1BAE : 20;
1BAF : 90;
1BB0 : e0;
1BB1 : f0;
1BB2 : 03;
1BB3 : 4c;
1BB4 : e7;
1BB5 : db;
1BB6 : 20;
1BB7 : 40;
1BB8 : df;
1BB9 : a6;
1BBA : 5d;
1BBB : b5;
1BBC : 68;
1BBD : c9;
1BBE : 01;
1BBF : d0;
1BC0 : 2c;
1BC1 : 20;
1BC2 : c3;
1BC3 : df;
1BC4 : a5;
1BC5 : 00;
1BC6 : c9;
1BC7 : 20;
1BC8 : f0;
1BC9 : 03;
1BCA : 90;
1BCB : 01;
1BCC : 60;
1BCD : a9;
1BCE : 03;
1BCF : 85;
1BD0 : 02;
1BD1 : a9;
1BD2 : 04;
1BD3 : 85;
1BD4 : 03;
1BD5 : 20;
1BD6 : 8e;
1BD7 : f0;
1BD8 : a9;
1BD9 : 01;
1BDA : 85;
1BDB : ad;
1BDC : a9;
1BDD : 00;
1BDE : a6;
1BDF : 5d;
1BE0 : 95;
1BE1 : 68;
1BE2 : a9;
1BE3 : 80;
1BE4 : 85;
1BE5 : fe;
1BE6 : 60;
1BE7 : a6;
1BE8 : 5d;
1BE9 : a9;
1BEA : 08;
1BEB : 95;
1BEC : 5e;
1BED : 60;
1BEE : a6;
1BEF : 5d;
1BF0 : fe;
1BF1 : 0d;
1BF2 : 04;
1BF3 : bd;
1BF4 : 0d;
1BF5 : 04;
1BF6 : c9;
1BF7 : 06;
1BF8 : b0;
1BF9 : 01;
1BFA : 60;
1BFB : a9;
1BFC : 00;
1BFD : 9d;
1BFE : 0d;
1BFF : 04;
1C00 : b5;
1C01 : 68;
1C02 : 29;
1C03 : 01;
1C04 : f0;
1C05 : 15;
1C06 : b5;
1C07 : 72;
1C08 : 18;
1C09 : 69;
1C0A : 04;
1C0B : c9;
1C0C : 80;
1C0D : 90;
1C0E : 07;
1C0F : c9;
1C10 : 90;
1C11 : b0;
1C12 : 03;
1C13 : 4c;
1C14 : 2d;
1C15 : dc;
1C16 : a9;
1C17 : 80;
1C18 : 4c;
1C19 : 2d;
1C1A : dc;
1C1B : b5;
1C1C : 72;
1C1D : 38;
1C1E : e9;
1C1F : 04;
1C20 : c9;
1C21 : 80;
1C22 : 90;
1C23 : 07;
1C24 : c9;
1C25 : 90;
1C26 : b0;
1C27 : 03;
1C28 : 4c;
1C29 : 2d;
1C2A : dc;
1C2B : a9;
1C2C : 8c;
1C2D : 95;
1C2E : 72;
1C2F : 60;
1C30 : a9;
1C31 : 55;
1C32 : 20;
1C33 : e4;
1C34 : df;
1C35 : f0;
1C36 : 31;
1C37 : 20;
1C38 : d5;
1C39 : ef;
1C3A : 86;
1C3B : 04;
1C3C : 20;
1C3D : ec;
1C3E : ea;
1C3F : e6;
1C40 : 01;
1C41 : a4;
1C42 : 5d;
1C43 : b9;
1C44 : 72;
1C45 : 00;
1C46 : c9;
1C47 : 90;
1C48 : d0;
1C49 : 05;
1C4A : a9;
1C4B : 94;
1C4C : 4c;
1C4D : 51;
1C4E : dc;
1C4F : a9;
1C50 : 90;
1C51 : 85;
1C52 : 02;
1C53 : a6;
1C54 : 5d;
1C55 : 95;
1C56 : 72;
1C57 : 20;
1C58 : db;
1C59 : ea;
1C5A : a5;
1C5B : 01;
1C5C : a6;
1C5D : 5d;
1C5E : d5;
1C5F : a3;
1C60 : d0;
1C61 : 06;
[...]
78E7 : 30;
78E8 : 0f;
78E9 : 3f;
78EA : 11;
78EB : 01;
78EC : 25;
78ED : 23;
78EE : e0;
78EF : 50;
78F0 : 55;
78F1 : 23;
78F2 : f0;
78F3 : 48;
78F4 : aa;
78F5 : 20;
78F6 : 83;
78F7 : c5;
78F8 : 62;
78F9 : 20;
78FA : 84;
78FB : c5;
78FC : 62;
78FD : 20;
78FE : 85;
78FF : 01;
7900 : 62;
7901 : 21;
7902 : 05;
7903 : 01;
7904 : 62;
7905 : 20;
7906 : a6;
7907 : c3;
7908 : 62;
7909 : 20;
790A : 88;
790B : c5;
790C : 62;
790D : 20;
790E : 89;
790F : 01;
7910 : 62;
7911 : 21;
7912 : 09;
7913 : 01;
7914 : 62;
7915 : 20;
7916 : 8a;
7917 : c5;
7918 : 62;
7919 : 20;
791A : 8c;
791B : c5;
791C : 62;
791D : 20;
791E : ad;
791F : c2;
7920 : 62;
7921 : 20;
7922 : ce;
7923 : c2;
7924 : 62;
7925 : 20;
7926 : 8f;
7927 : c5;
7928 : 62;
7929 : 20;
792A : 91;
792B : c5;
792C : 62;
792D : 20;
792E : b2;
792F : c2;
7930 : 62;
7931 : 20;
7932 : b3;
7933 : 01;
7934 : 62;
7935 : 20;
7936 : 94;
7937 : 01;
7938 : 62;
7939 : 20;
793A : f3;
793B : 01;
793C : 62;
793D : 21;
793E : 14;
793F : 01;
7940 : 62;
7941 : 20;
7942 : 96;
7943 : c5;
7944 : 62;
7945 : 20;
7946 : 97;
7947 : 42;
7948 : 62;
7949 : 20;
794A : d7;
794B : 42;
794C : 62;
794D : 21;
794E : 17;
794F : 42;
7950 : 62;
7951 : 20;
7952 : 9a;
7953 : c3;
7954 : 62;
7955 : 20;
7956 : db;
7957 : c3;
7958 : 62;
7959 : 20;
795A : 9c;
795B : c3;
795C : 62;
795D : 21;
795E : 47;
795F : c5;
7960 : 62;
7961 : 21;
7962 : 68;
7963 : c2;
7964 : 62;
7965 : 21;
7966 : 69;
7967 : 01;
7968 : 62;
7969 : 21;
796A : 4a;
796B : 01;
796C : 62;
796D : 21;
796E : a9;
796F : 01;
7970 : 62;
7971 : 21;
7972 : ca;
7973 : 01;
7974 : 62;
7975 : 21;
7976 : 4c;
7977 : c5;
7978 : 62;
7979 : 21;
797A : 4d;
797B : 01;
797C : 62;
797D : 21;
797E : cd;
797F : 01;
7980 : 62;
7981 : 21;
7982 : 4e;
7983 : c5;
7984 : 62;
7985 : 21;
7986 : 50;
7987 : c5;
7988 : 62;
7989 : 21;
798A : 71;
798B : c2;
798C : 62;
798D : 21;
798E : 92;
798F : c2;
7990 : 62;
7991 : 21;
7992 : 53;
7993 : c5;
7994 : 62;
7995 : 21;
7996 : 55;
7997 : c5;
7998 : 62;
7999 : 21;
799A : 56;
799B : 43;
799C : 62;
799D : 21;
799E : d6;
799F : 43;
79A0 : 62;
79A1 : 21;
79A2 : 98;
79A3 : c2;
79A4 : 62;
79A5 : 21;
79A6 : 97;
79A7 : 01;
79A8 : 62;
79A9 : 22;
79AA : 09;
79AB : 0f;
79AC : 01;
79AD : 24;
79AE : 19;
79AF : 15;
79B0 : 0a;
79B1 : 22;
79B2 : 0e;
79B3 : 1b;
79B4 : 24;
79B5 : 10;
79B6 : 0a;
79B7 : 16;
79B8 : 0e;
79B9 : 24;
79BA : 0a;
79BB : 22;
79BC : 49;
79BD : 0f;
79BE : 01;
79BF : 24;
79C0 : 19;
79C1 : 15;
79C2 : 0a;
79C3 : 22;
79C4 : 0e;
79C5 : 1b;
79C6 : 24;
79C7 : 10;
79C8 : 0a;
79C9 : 16;
79CA : 0e;
79CB : 24;
79CC : 0b;
79CD : 22;
79CE : 89;
79CF : 0f;
79D0 : 02;
79D1 : 24;
79D2 : 19;
79D3 : 15;
79D4 : 0a;
79D5 : 22;
79D6 : 0e;
79D7 : 1b;
79D8 : 24;
79D9 : 10;
79DA : 0a;
79DB : 16;
79DC : 0e;
79DD : 24;
79DE : 0a;
79DF : 22;
79E0 : c9;
79E1 : 0f;
79E2 : 02;
79E3 : 24;
79E4 : 19;
79E5 : 15;
79E6 : 0a;
79E7 : 22;
79E8 : 0e;
79E9 : 1b;
79EA : 24;
79EB : 10;
79EC : 0a;
79ED : 16;
79EE : 0e;
79EF : 24;
79F0 : 0b;
79F1 : 23;
79F2 : 05;
79F3 : 16;
79F4 : d3;
79F5 : 01;
79F6 : 09;
79F7 : 08;
79F8 : 01;
79F9 : 24;
79FA : 17;
79FB : 12;
79FC : 17;
79FD : 1d;
79FE : 0e;
79FF : 17;
7A00 : 0d;
7A01 : 18;
7A02 : 24;
7A03 : 0c;
7A04 : 18;
7A05 : 65;
7A06 : 15;
7A07 : 1d;
7A08 : 0d;
7A09 : 64;
7A0A : 23;
7A0B : 4b;
7A0C : 0d;
7A0D : 16;
7A0E : 0a;
7A0F : 0d;
7A10 : 0e;
7A11 : 24;
7A12 : 12;
7A13 : 17;
7A14 : 24;
7A15 : 13;
7A16 : 0a;
7A17 : 19;
7A18 : 0a;
7A19 : 17;
7A1A : 00;
7A1B : 20;
7A1C : 63;
7A1D : 01;
7A1E : ff;
7A1F : 20;
7A20 : 6d;
7A21 : 03;
7A22 : d0;
7A23 : d1;
7A24 : d2;
7A25 : 20;
7A26 : 76;
7A27 : 02;
7A28 : fe;
7A29 : ff;
7A2A : 20;
7A2B : 94;
7A2C : 0a;
7A2D : 25;
7A2E : 16;
7A2F : 2a;
7A30 : 26;
7A31 : 27;
7A32 : 28;
7A33 : 29;
7A34 : 2a;
7A35 : 15;
7A36 : 2d;
7A37 : 20;
7A38 : b4;
7A39 : 0a;
7A3A : 2b;
7A3B : 24;
7A3C : 2c;
7A3D : 24;
7A3E : 24;
7A3F : 24;
7A40 : 24;
7A41 : 2c;
7A42 : 24;
7A43 : 2f;
7A44 : 00;
7A45 : ff;
7A46 : ff;
7A47 : ff;
7A48 : a9;
7A49 : c0;
7A4A : 8d;
7A4B : 17;
7A4C : 40;
7A4D : 20;
7A4E : f2;
7A4F : fb;
7A50 : a2;
7A51 : 00;
7A52 : 86;
7A53 : ff;
7A54 : 86;
7A55 : fe;
7A56 : 86;
7A57 : fd;
7A58 : ad;
7A59 : f0;
7A5A : 06;
7A5B : c9;
7A5C : 90;
7A5D : b0;
7A5E : 05;
7A5F : a2;
7A60 : 00;
7A61 : 8e;
7A62 : f1;
7A63 : 06;
7A64 : c9;
7A65 : d8;
7A66 : 90;
7A67 : 03;
7A68 : ee;
7A69 : f1;
7A6A : 06;
7A6B : a8;
7A6C : 4a;
7A6D : 4a;
7A6E : 4a;
7A6F : 4a;
7A70 : 4a;
7A71 : 4a;
7A72 : 85;
7A73 : 00;
7A74 : 98;
7A75 : ae;
7A76 : f1;
7A77 : 06;
7A78 : d0;
7A79 : 05;
7A7A : 38;
7A7B : 65;
7A7C : 00;
7A7D : d0;
7A7E : 03;
7A7F : 18;
7A80 : e5;
7A81 : 00;
7A82 : 8d;
7A83 : f0;
7A84 : 06;
7A85 : 60;
7A86 : a0;
7A87 : 07;
7A88 : 0a;
7A89 : b0;
7A8A : 03;
7A8B : 88;
7A8C : d0;
7A8D : fa;
7A8E : 60;
7A8F : 85;
7A90 : f1;
7A91 : 84;
7A92 : f2;
7A93 : a0;
7A94 : 7f;
7A95 : 8e;
7A96 : 00;
7A97 : 40;
7A98 : 8c;
7A99 : 01;
7A9A : 40;
7A9B : 60;
7A9C : 20;
7A9D : 95;
7A9E : fa;
7A9F : a2;
7AA0 : 00;
7AA1 : a8;
7AA2 : b9;
7AA3 : 01;
7AA4 : fb;
7AA5 : f0;
7AA6 : 0b;
7AA7 : 9d;
7AA8 : 02;
7AA9 : 40;
7AAA : b9;
7AAB : 00;
7AAC : fb;
7AAD : 09;
7AAE : 08;
7AAF : 9d;
7AB0 : 03;
7AB1 : 40;
7AB2 : 60;
7AB3 : 8c;
7AB4 : 05;
7AB5 : 40;
7AB6 : a2;
7AB7 : 04;
7AB8 : d0;
7AB9 : e7;
7ABA : 8d;
7ABB : 08;
7ABC : 40;
7ABD : 8a;
7ABE : 29;
7ABF : 3e;
7AC0 : a2;
7AC1 : 08;
7AC2 : d0;
7AC3 : dd;
7AC4 : aa;
7AC5 : 6a;
7AC6 : 8a;
7AC7 : 2a;
7AC8 : 2a;
7AC9 : 2a;
7ACA : 29;
7ACB : 07;
7ACC : 18;
7ACD : 6d;
7ACE : 8d;
7ACF : 06;
7AD0 : a8;
7AD1 : b9;
7AD2 : 4c;
7AD3 : fb;
7AD4 : 60;
7AD5 : 98;
7AD6 : 4a;
7AD7 : 4a;
7AD8 : 4a;
7AD9 : 85;
7ADA : 00;
7ADB : 98;
7ADC : 38;
7ADD : e5;
7ADE : 00;
7ADF : 60;
7AE0 : a9;
7AE1 : 90;
7AE2 : 8d;
7AE3 : 00;
7AE4 : 40;
7AE5 : 60;
7AE6 : 8d;
7AE7 : 8d;
7AE8 : 8c;
7AE9 : 8c;
7AEA : 8b;
7AEB : 8c;
7AEC : 83;
7AED : 83;
7AEE : 8f;
7AEF : 8f;
7AF0 : 8f;
7AF1 : 8f;
7AF2 : 8d;
7AF3 : 85;
7AF4 : 84;
7AF5 : 85;
7AF6 : 7f;
7AF7 : 85;
7AF8 : 85;
7AF9 : 85;
7AFA : 7f;
7AFB : 8d;
7AFC : 8d;
7AFD : 8d;
7AFE : 8d;
7AFF : 8d;
7B00 : 07;
7B01 : f0;
7B02 : 00;
7B03 : 00;
7B04 : 00;
7B05 : 69;
7B06 : 00;
7B07 : 53;
7B08 : 00;
7B09 : 46;
7B0A : 00;
7B0B : d4;
7B0C : 00;
7B0D : bd;
7B0E : 00;
7B0F : a8;
7B10 : 00;
7B11 : 9f;
7B12 : 00;
7B13 : 8d;
7B14 : 00;
7B15 : 7e;
7B16 : 01;
7B17 : ab;
7B18 : 01;
7B19 : 7c;
7B1A : 01;
7B1B : 52;
7B1C : 01;
7B1D : 3f;
7B1E : 01;
7B1F : 1c;
7B20 : 00;
7B21 : fd;
7B22 : 00;
7B23 : ee;
7B24 : 00;
7B25 : e1;
7B26 : 03;
7B27 : 57;
7B28 : 02;
7B29 : f9;
7B2A : 02;
7B2B : cf;
7B2C : 02;
7B2D : a6;
7B2E : 02;
7B2F : 80;
7B30 : 02;
7B31 : 3a;
7B32 : 02;
7B33 : 1a;
7B34 : 01;
7B35 : fc;
7B36 : 01;
7B37 : df;
7B38 : 01;
7B39 : c4;
7B3A : 06;
7B3B : ae;
7B3C : 05;
7B3D : 9e;
7B3E : 05;
7B3F : 4d;
7B40 : 05;
7B41 : 01;
7B42 : 04;
7B43 : 75;
7B44 : 04;
7B45 : 35;
7B46 : 03;
7B47 : f8;
7B48 : 03;
7B49 : bf;
7B4A : 03;
7B4B : 89;
7B4C : 05;
7B4D : 0a;
7B4E : 14;
7B4F : 28;
7B50 : 50;
7B51 : 1e;
7B52 : 3c;
7B53 : 0b;
7B54 : 06;
7B55 : 0c;
7B56 : 18;
7B57 : 30;
7B58 : 60;
7B59 : 24;
7B5A : 48;
7B5B : 07;
7B5C : 0d;
7B5D : 1a;
7B5E : 34;
7B5F : 78;
7B60 : 27;
7B61 : 4e;
7B62 : 0a;
7B63 : 08;
7B64 : 05;
7B65 : 0a;
7B66 : 09;
7B67 : 50;
7B68 : 40;
7B69 : 46;
7B6A : 4a;
7B6B : 50;
7B6C : 56;
7B6D : 5c;
7B6E : 64;
7B6F : 6c;
7B70 : 74;
7B71 : 7c;
7B72 : 88;
7B73 : 90;
7B74 : 9a;
7B75 : 85;
7B76 : f0;
7B77 : 85;
7B78 : fb;
7B79 : a0;
7B7A : 08;
7B7B : 4c;
7B7C : 67;
7B7D : fd;
7B7E : 84;
7B7F : f0;
7B80 : a9;
7B81 : 71;
7B82 : a0;
7B83 : 00;
7B84 : a2;
7B85 : 9f;
7B86 : 20;
7B87 : 8f;
7B88 : fa;
7B89 : a6;
7B8A : f2;
7B8B : bc;
7B8C : 67;
7B8D : fb;
7B8E : c6;
7B8F : f1;
7B90 : a5;
7B91 : f1;
7B92 : f0;
7B93 : e1;
7B94 : 29;
7B95 : 07;
7B96 : d0;
7B97 : 08;
7B98 : 98;
7B99 : 4a;
7B9A : 7d;
7B9B : 67;
7B9C : fb;
7B9D : a8;
7B9E : d0;
7B9F : 07;
7BA0 : 29;
7BA1 : 03;
7BA2 : d0;
7BA3 : 0e;
7BA4 : e6;
7BA5 : f2;
7BA6 : 18;
7BA7 : 8c;
7BA8 : 02;
7BA9 : 40;
7BAA : a0;
7BAB : 28;
7BAC : 90;
7BAD : 01;
7BAE : c8;
7BAF : 8c;
7BB0 : 03;
7BB1 : 40;
7BB2 : a9;
7BB3 : 00;
7BB4 : 4c;
7BB5 : 00;
7BB6 : fe;
7BB7 : 84;
7BB8 : f0;
7BB9 : a9;
7BBA : 54;
7BBB : a0;
7BBC : 6a;
7BBD : a2;
7BBE : 9c;
7BBF : 20;
7BC0 : 8f;
7BC1 : fa;
7BC2 : a4;
7BC3 : f2;
7BC4 : a5;
7BC5 : f1;
7BC6 : 29;
7BC7 : 03;
7BC8 : f0;
7BC9 : 0a;
7BCA : c9;
7BCB : 03;
7BCC : d0;
7BCD : 0b;
7BCE : 20;
7BCF : d5;
7BD0 : fa;
7BD1 : 85;
7BD2 : f2;
7BD3 : a8;
7BD4 : 98;
7BD5 : 4a;
7BD6 : 65;
7BD7 : f2;
7BD8 : a8;
7BD9 : 98;
7BDA : 2a;
7BDB : 2a;
7BDC : 2a;
7BDD : 8d;
7BDE : 02;
7BDF : 40;
7BE0 : 2a;
7BE1 : 8d;
7BE2 : 03;
7BE3 : 40;
7BE4 : a5;
7BE5 : f1;
7BE6 : c9;
7BE7 : 18;
7BE8 : b0;
7BE9 : 5a;
7BEA : 4a;
7BEB : 09;
7BEC : 90;
7BED : 8d;
7BEE : 00;
7BEF : 40;
7BF0 : d0;
7BF1 : 52;
7BF2 : a4;
7BF3 : ff;
7BF4 : a5;
7BF5 : f0;
7BF6 : 4a;
7BF7 : b0;
7BF8 : 90;
7BF9 : 46;
7BFA : ff;
7BFB : b0;
7BFC : 81;
7BFD : a6;
7BFE : fa;
7BFF : d0;
7C00 : 4a;
7C01 : 4a;
7C02 : b0;
7C03 : be;
7C04 : 46;
7C05 : ff;
7C06 : b0;
7C07 : af;
7C08 : 4a;
7C09 : b0;
7C0A : 1d;
7C0B : 46;
7C0C : ff;
7C0D : b0;
7C0E : 0a;
7C0F : 4a;
7C10 : b0;
7C11 : 50;
7C12 : 46;
7C13 : ff;
7C14 : b0;
7C15 : 3b;
7C16 : 4c;
7C17 : 90;
7C18 : fc;
7C19 : 84;
7C1A : f0;
7C1B : a9;
7C1C : 22;
7C1D : 85;
7C1E : f1;
7C1F : a0;
7C20 : 0b;
7C21 : 84;
7C22 : f2;
7C23 : a9;
7C24 : 20;
7C25 : 20;
7C26 : 9f;
7C27 : fa;
7C28 : c6;
7C29 : f2;
7C2A : d0;
7C2B : 04;
7C2C : a9;
7C2D : 07;
7C2E : 85;
7C2F : f2;
7C30 : a6;
7C31 : f2;
7C32 : bc;
7C33 : f5;
7C34 : fa;
7C35 : a2;
7C36 : 5a;
7C37 : a5;
7C38 : f1;
7C39 : c9;
7C3A : 14;
7C3B : b0;
7C3C : 04;
7C3D : 4a;
7C3E : 09;
7C3F : 50;
7C40 : aa;
7C41 : 20;
7C42 : 95;
7C43 : fa;
7C44 : c6;
7C45 : f1;
7C46 : d0;
7C47 : ce;
7C48 : 20;
7C49 : e0;
7C4A : fa;
7C4B : a9;
7C4C : 00;
7C4D : 85;
7C4E : f0;
7C4F : f0;
7C50 : c5;
7C51 : 84;
7C52 : f0;
7C53 : a9;
7C54 : 0a;
7C55 : 85;
7C56 : f1;
7C57 : ac;
7C58 : f0;
7C59 : 06;
7C5A : 8c;
7C5B : 02;
7C5C : 40;
7C5D : a9;
7C5E : 88;
7C5F : 8d;
7C60 : 03;
7C61 : 40;
7C62 : a5;
7C63 : 18;
7C64 : 29;
7C65 : 08;
7C66 : 18;
7C67 : 65;
7C68 : f1;
7C69 : 69;
7C6A : fe;
7C6B : aa;
7C6C : bc;
7C6D : e5;
7C6E : fa;
7C6F : a2;
7C70 : 41;
7C71 : d0;
7C72 : ce;
7C73 : a9;
7C74 : 0e;
7C75 : 8d;
7C76 : a5;
7C77 : 06;
7C78 : a0;
7C79 : 85;
7C7A : a9;
7C7B : 46;
7C7C : 20;
7C7D : b3;
7C7E : fa;
7C7F : ce;
7C80 : a5;
7C81 : 06;
7C82 : f0;
7C83 : 19;
7C84 : ad;
7C85 : a5;
7C86 : 06;
7C87 : 09;
7C88 : 90;
7C89 : a8;
7C8A : 88;
7C8B : 8c;
7C8C : 04;
7C8D : 40;
7C8E : d0;
7C8F : 0d;
7C90 : a5;
7C91 : f3;
7C92 : d0;
7C93 : 09;
7C94 : ad;
7C95 : a5;
7C96 : 06;
7C97 : d0;
7C98 : e6;
7C99 : a4;
7C9A : fe;
7C9B : 30;
7C9C : d6;
7C9D : a5;
7C9E : fc;
7C9F : d0;
7CA0 : 6a;
7CA1 : a5;
7CA2 : f9;
7CA3 : d0;
7CA4 : 66;
7CA5 : a4;
7CA6 : fe;
7CA7 : ad;
7CA8 : a1;
7CA9 : 06;
7CAA : 46;
7CAB : fe;
7CAC : b0;
7CAD : 0c;
7CAE : 4a;
7CAF : b0;
7CB0 : 0d;
7CB1 : 4a;
7CB2 : b0;
7CB3 : 3c;
7CB4 : 46;
7CB5 : fe;
7CB6 : b0;
7CB7 : 23;
7CB8 : 90;
7CB9 : 51;
7CBA : a9;
7CBB : 28;
7CBC : d0;
7CBD : 1f;
7CBE : a5;
7CBF : f5;
7CC0 : d0;
7CC1 : 04;
7CC2 : 46;
7CC3 : fe;
7CC4 : b0;
7CC5 : 15;
7CC6 : a5;
7CC7 : f6;
7CC8 : 4a;
7CC9 : 4a;
7CCA : 4a;
7CCB : 4a;
7CCC : 4a;
7CCD : 65;
7CCE : f6;
7CCF : 90;
7CD0 : 2f;
7CD1 : a9;
7CD2 : 00;
7CD3 : 8d;
7CD4 : a1;
7CD5 : 06;
7CD6 : 8d;
7CD7 : 08;
7CD8 : 40;
7CD9 : f0;
7CDA : 30;
7CDB : a9;
7CDC : fe;
7CDD : 8c;
7CDE : a1;
7CDF : 06;
7CE0 : a2;
7CE1 : 0e;
7CE2 : 86;
7CE3 : f5;
7CE4 : a0;
7CE5 : ff;
7CE6 : 8c;
7CE7 : 08;
7CE8 : 40;
7CE9 : a0;
7CEA : 08;
7CEB : 8c;
7CEC : 0b;
7CED : 40;
7CEE : d0;
7CEF : 10;
7CF0 : a9;
7CF1 : fe;
7CF2 : a4;
7CF3 : f5;
7CF4 : f0;
7CF5 : db;
7CF6 : c0;
7CF7 : 07;
7CF8 : f0;
7CF9 : 06;
7CFA : a5;
7CFB : f6;
7CFC : a8;
7CFD : 20;
7CFE : d7;
7CFF : fa;
7D00 : 85;
7D01 : f6;
7D02 : 8d;
7D03 : 0a;
7D04 : 40;
7D05 : a5;
7D06 : f5;
7D07 : f0;
7D08 : 02;
7D09 : c6;
7D0A : f5;
7D0B : a6;
7D0C : fa;
7D0D : d0;
7D0E : 49;
7D0F : a5;
7D10 : fc;
7D11 : d0;
7D12 : 05;
7D13 : 8d;
7D14 : a3;
7D15 : 06;
7D16 : f0;
7D17 : 40;
7D18 : 4d;
7D19 : a3;
7D1A : 06;
7D1B : f0;
7D1C : 18;
7D1D : a5;
7D1E : fc;
7D1F : 8d;
7D20 : a3;
7D21 : 06;
7D22 : 20;
7D23 : 86;
7D24 : fa;
7D25 : b9;
7D26 : cd;
7D27 : ff;
7D28 : 8d;
7D29 : 80;
7D2A : 06;
7D2B : a9;
7D2C : d4;
7D2D : 85;
7D2E : f5;
7D2F : a9;
7D30 : ff;
7D31 : 85;
7D32 : f6;
7D33 : d0;
7D34 : 05;
7D35 : ce;
7D36 : 98;
7D37 : 06;
7D38 : d0;
7D39 : 1e;
7D3A : ac;
7D3B : 80;
7D3C : 06;
7D3D : ee;
7D3E : 80;
7D3F : 06;
7D40 : b1;
7D41 : f5;
7D42 : f0;
7D43 : d9;
7D44 : aa;
7D45 : 6a;
7D46 : 8a;
7D47 : 2a;
7D48 : 2a;
7D49 : 2a;
7D4A : 29;
7D4B : 07;
7D4C : a8;
7D4D : b9;
7D4E : 62;
7D4F : fb;
7D50 : 8d;
7D51 : 98;
7D52 : 06;
7D53 : a9;
7D54 : 10;
7D55 : 20;
7D56 : ba;
7D57 : fa;
7D58 : a5;
7D59 : fd;
7D5A : d0;
7D5B : 06;
7D5C : ad;
7D5D : 02;
7D5E : 01;
7D5F : d0;
7D60 : 3a;
7D61 : 60;
7D62 : 20;
7D63 : 86;
7D64 : fa;
7D65 : 84;
7D66 : fb;
7D67 : b9;
7D68 : 59;
7D69 : fe;
7D6A : a8;
7D6B : b9;
7D6C : 59;
7D6D : fe;
7D6E : 8d;
7D6F : 8d;
7D70 : 06;
7D71 : b9;
7D72 : 5a;
7D73 : fe;
7D74 : 85;
7D75 : f7;
7D76 : b9;
7D77 : 5b;
7D78 : fe;
7D79 : 85;
7D7A : f8;
7D7B : b9;
7D7C : 5c;
7D7D : fe;
7D7E : 85;
7D7F : f9;
7D80 : b9;
7D81 : 5d;
7D82 : fe;
7D83 : 85;
7D84 : fa;
7D85 : a9;
7D86 : 01;
7D87 : 8d;
7D88 : 95;
7D89 : 06;
7D8A : 8d;
7D8B : 96;
7D8C : 06;
7D8D : 8d;
7D8E : 98;
7D8F : 06;
7D90 : 8d;
7D91 : 02;
7D92 : 01;
7D93 : a0;
7D94 : 00;
7D95 : 84;
7D96 : f3;
7D97 : a5;
7D98 : fb;
7D99 : f0;
7D9A : 09;
7D9B : a4;
7D9C : fa;
7D9D : f0;
7D9E : 39;
7D9F : ce;
7DA0 : 96;
7DA1 : 06;
7DA2 : d0;
7DA3 : 34;
7DA4 : e6;
7DA5 : fa;
7DA6 : b1;
7DA7 : f7;
7DA8 : f0;
7DA9 : 3f;
7DAA : 10;
7DAB : 0c;
7DAC : 20;
7DAD : ca;
7DAE : fa;
7DAF : 8d;
7DB0 : 91;
7DB1 : 06;
7DB2 : a4;
7DB3 : fa;
7DB4 : e6;
7DB5 : fa;
7DB6 : b1;
7DB7 : f7;
7DB8 : 20;
7DB9 : 9f;
7DBA : fa;
7DBB : d0;
7DBC : 04;
7DBD : a0;
7DBE : 10;
7DBF : d0;
7DC0 : 0e;
7DC1 : a2;
7DC2 : 9f;
7DC3 : a5;
7DC4 : fb;
7DC5 : f0;
7DC6 : 08;
7DC7 : a2;
7DC8 : 06;
7DC9 : a5;
7DCA : f9;
7DCB : d0;
7DCC : 02;
7DCD : a2;
7DCE : 86;
7DCF : 20;
7DD0 : 93;
7DD1 : fa;
7DD2 : ad;
7DD3 : 91;
7DD4 : 06;
7DD5 : 8d;
7DD6 : 96;
7DD7 : 06;
7DD8 : a5;
7DD9 : fb;
7DDA : f0;
7DDB : 55;
7DDC : ce;
7DDD : 95;
7DDE : 06;
7DDF : d0;
7DE0 : 50;
7DE1 : a4;
7DE2 : f3;
7DE3 : e6;
7DE4 : f3;
7DE5 : b1;
7DE6 : f7;
7DE7 : d0;
7DE8 : 20;
7DE9 : 20;
7DEA : e0;
7DEB : fa;
7DEC : a9;
7DED : 00;
7DEE : 85;
7DEF : fa;
7DF0 : 85;
7DF1 : f3;
7DF2 : 85;
7DF3 : f9;
7DF4 : 8d;
7DF5 : 02;
7DF6 : 01;
7DF7 : a4;
7DF8 : fb;
7DF9 : f0;
7DFA : 05;
7DFB : ac;
7DFC : a1;
7DFD : 06;
7DFE : d0;
7DFF : 03;
7E00 : 8d;
7E01 : 08;
7E02 : 40;
7E03 : a9;
7E04 : 10;
7E05 : 8d;
7E06 : 04;
7E07 : 40;
7E08 : 60;
7E09 : 20;
7E0A : c4;
7E0B : fa;
7E0C : 8d;
7E0D : 95;
7E0E : 06;
7E0F : 8a;
7E10 : 29;
7E11 : 3e;
7E12 : a0;
7E13 : 7f;
7E14 : 20;
7E15 : b3;
7E16 : fa;
7E17 : d0;
7E18 : 04;
7E19 : a2;
7E1A : 10;
7E1B : d0;
7E1C : 11;
7E1D : a2;
7E1E : 89;
7E1F : ad;
7E20 : 95;
7E21 : 06;
7E22 : c9;
7E23 : 18;
7E24 : b0;
7E25 : 08;
7E26 : a2;
7E27 : 86;
7E28 : c9;
7E29 : 10;
7E2A : b0;
7E2B : 02;
7E2C : a2;
7E2D : 84;
7E2E : 8e;
7E2F : 04;
7E30 : 40;
7E31 : a4;
7E32 : f9;
7E33 : f0;
7E34 : 23;
7E35 : ce;
7E36 : 98;
7E37 : 06;
7E38 : d0;
7E39 : 1e;
7E3A : e6;
7E3B : f9;
7E3C : b1;
7E3D : f7;
7E3E : 20;
7E3F : c4;
7E40 : fa;
7E41 : 8d;
7E42 : 98;
7E43 : 06;
7E44 : 18;
7E45 : 69;
7E46 : fe;
7E47 : 0a;
7E48 : 0a;
7E49 : c9;
7E4A : 38;
7E4B : 90;
7E4C : 02;
7E4D : a9;
7E4E : 38;
7E4F : a4;
7E50 : fb;
7E51 : d0;
7E52 : 02;
7E53 : a9;
7E54 : ff;
7E55 : 20;
7E56 : ba;
7E57 : fa;
7E58 : 60;
7E59 : 09;
7E5A : 0e;
7E5B : 13;
7E5C : 18;
7E5D : 1d;
7E5E : 22;
7E5F : 27;
7E60 : 2c;
7E61 : 31;
7E62 : 00;
7E63 : 8f;
7E64 : fe;
7E65 : 1b;
7E66 : 00;
7E67 : 08;
7E68 : b0;
7E69 : fe;
7E6A : 00;
7E6B : 0c;
7E6C : 00;
7E6D : cf;
7E6E : fe;
7E6F : 00;
7E70 : 1a;
7E71 : 08;
7E72 : 05;
7E73 : ff;
7E74 : 00;
7E75 : 0b;
7E76 : 00;
7E77 : ad;
7E78 : ff;
7E79 : 00;
7E7A : 03;
7E7B : 00;
7E7C : be;
7E7D : ff;
7E7E : 00;
7E7F : 00;
7E80 : 00;
7E81 : c4;
7E82 : ff;
7E83 : 00;
7E84 : 00;
7E85 : 0f;
7E86 : 20;
7E87 : ff;
7E88 : 21;
7E89 : 3e;
7E8A : 00;
7E8B : a1;
7E8C : ff;
7E8D : 08;
7E8E : 00;
7E8F : 86;
7E90 : 46;
7E91 : 82;
7E92 : 4a;
7E93 : 83;
7E94 : 26;
7E95 : 46;
7E96 : 80;
7E97 : 34;
7E98 : 32;
7E99 : 34;
7E9A : 32;
7E9B : 34;
7E9C : 32;
7E9D : 34;
7E9E : 32;
7E9F : 34;
7EA0 : 32;
7EA1 : 34;
7EA2 : 32;
7EA3 : 34;
7EA4 : 32;
7EA5 : 34;
7EA6 : 32;
7EA7 : 84;
7EA8 : 34;
7EA9 : 00;
7EAA : a9;
7EAB : ac;
7EAC : ee;
7EAD : e8;
7EAE : 33;
7EAF : 35;
7EB0 : 16;
7EB1 : 16;
7EB2 : 57;
7EB3 : 1e;
7EB4 : 20;
7EB5 : 64;
7EB6 : 9e;
7EB7 : 1e;
7EB8 : 20;
7EB9 : 64;
7EBA : 9e;
7EBB : 00;
7EBC : 80;
7EBD : 30;
7EBE : 30;
7EBF : 85;
7EC0 : 30;
7EC1 : 80;
7EC2 : 1a;
7EC3 : 1c;
7EC4 : 81;
7EC5 : 1e;
7EC6 : 82;
7EC7 : 1a;
7EC8 : 80;
7EC9 : 1a;
7ECA : 1c;
7ECB : 81;
7ECC : 1e;
7ECD : 82;
7ECE : 1a;
7ECF : 5e;
7ED0 : 5e;
7ED1 : 5c;
7ED2 : 5c;
7ED3 : 5a;
7ED4 : 5a;
7ED5 : 58;
7ED6 : 58;
7ED7 : 57;
7ED8 : 16;
7ED9 : 18;
7EDA : 9a;
7EDB : 96;
7EDC : 59;
7EDD : 18;
7EDE : 1a;
7EDF : 9c;
7EE0 : 98;
7EE1 : 5f;
7EE2 : 5e;
7EE3 : 60;
7EE4 : 5e;
7EE5 : 5c;
7EE6 : 5a;
7EE7 : 1f;
7EE8 : 00;
7EE9 : 81;
7EEA : 1a;
7EEB : 1a;
7EEC : 18;
7EED : 18;
7EEE : 16;
7EEF : 16;
7EF0 : 38;
7EF1 : 38;
7EF2 : 82;
7EF3 : 26;
7EF4 : 42;
7EF5 : 26;
7EF6 : 42;
7EF7 : 28;
7EF8 : 46;
7EF9 : 28;
7EFA : 46;
7EFB : 30;
7EFC : 28;
7EFD : 30;
7EFE : 28;
7EFF : 81;
7F00 : 3a;
7F01 : 85;
7F02 : 3c;
7F03 : 84;
7F04 : 3a;
7F05 : 5e;
7F06 : 02;
7F07 : 20;
7F08 : 42;
7F09 : 4a;
7F0A : 42;
7F0B : 60;
7F0C : 5e;
7F0D : 60;
7F0E : 1d;
7F0F : 00;
7F10 : 82;
7F11 : 26;
7F12 : 42;
7F13 : 26;
7F14 : 42;
7F15 : 81;
7F16 : 40;
7F17 : 80;
7F18 : 42;
7F19 : 44;
7F1A : 48;
7F1B : 26;
7F1C : 28;
7F1D : 2c;
7F1E : 83;
7F1F : 2e;
7F20 : 56;
7F21 : 56;
7F22 : e0;
7F23 : 42;
7F24 : 5a;
7F25 : 5e;
7F26 : 5c;
7F27 : 99;
7F28 : 58;
7F29 : 58;
7F2A : e2;
7F2B : 42;
7F2C : 5e;
7F2D : 60;
7F2E : 5e;
7F2F : 9b;
7F30 : 5a;
7F31 : 5a;
7F32 : ca;
7F33 : 42;
7F34 : 60;
7F35 : 62;
7F36 : 4a;
7F37 : 8d;
7F38 : 5c;
7F39 : 5e;
7F3A : e0;
7F3B : 42;
7F3C : 5a;
7F3D : 5c;
7F3E : 5e;
7F3F : 1d;
7F40 : 00;
7F41 : 82;
7F42 : 6f;
7F43 : 6e;
7F44 : ee;
7F45 : 71;
7F46 : 70;
7F47 : f0;
7F48 : 77;
7F49 : 76;
7F4A : f6;
7F4B : 57;
7F4C : 56;
7F4D : d6;
7F4E : a0;
7F4F : 9a;
7F50 : 96;
7F51 : b4;
7F52 : a2;
7F53 : 9c;
7F54 : 98;
7F55 : b6;
7F56 : 5c;
7F57 : 9c;
7F58 : 96;
7F59 : 57;
7F5A : 5c;
7F5B : 96;
7F5C : 74;
7F5D : 2f;
7F5E : 85;
7F5F : 02;
7F60 : 81;
7F61 : 2e;
7F62 : 34;
7F63 : 2e;
7F64 : 83;
7F65 : 34;
7F66 : 81;
7F67 : 48;
7F68 : 28;
7F69 : 30;
7F6A : 28;
7F6B : 30;
7F6C : 28;
7F6D : 85;
7F6E : 30;
7F6F : 81;
7F70 : 30;
7F71 : 36;
7F72 : 30;
7F73 : 83;
7F74 : 36;
7F75 : 81;
7F76 : 26;
7F77 : 2c;
7F78 : 30;
7F79 : 2c;
7F7A : 30;
7F7B : 2c;
7F7C : 16;
7F7D : 16;
7F7E : 1a;
7F7F : 16;
7F80 : 34;
7F81 : 16;
7F82 : 1a;
7F83 : 16;
7F84 : 34;
7F85 : 16;
7F86 : 1c;
7F87 : 18;
7F88 : 36;
7F89 : 18;
7F8A : 1c;
7F8B : 18;
7F8C : 36;
7F8D : 18;
7F8E : 16;
7F8F : 2e;
7F90 : 80;
7F91 : 16;
7F92 : 36;
7F93 : 34;
7F94 : 36;
7F95 : 83;
7F96 : 16;
7F97 : 81;
7F98 : 02;
7F99 : 2e;
7F9A : 80;
7F9B : 16;
7F9C : 36;
7F9D : 34;
7F9E : 30;
7F9F : 86;
7FA0 : 2e;
7FA1 : 81;
7FA2 : 1a;
7FA3 : 82;
7FA4 : 1e;
7FA5 : 30;
7FA6 : 83;
7FA7 : 16;
7FA8 : 00;
7FA9 : 42;
7FAA : 96;
7FAB : b0;
7FAC : e6;
7FAD : 03;
7FAE : 83;
7FAF : 00;
7FB0 : 87;
7FB1 : 42;
7FB2 : 3e;
7FB3 : 42;
7FB4 : 3e;
7FB5 : 42;
7FB6 : 3e;
7FB7 : 42;
7FB8 : 3e;
7FB9 : 42;
7FBA : 3e;
7FBB : 42;
7FBC : 82;
7FBD : 3e;
7FBE : 0a;
7FBF : 0c;
7FC0 : 0e;
7FC1 : 54;
7FC2 : 90;
7FC3 : 00;
7FC4 : 04;
7FC5 : 12;
7FC6 : 04;
7FC7 : 12;
7FC8 : 04;
7FC9 : 12;
7FCA : 04;
7FCB : 92;
7FCC : 00;
7FCD : 00;
7FCE : 00;
7FCF : 00;
7FD0 : 00;
7FD1 : 09;
7FD2 : 0e;
7FD3 : 12;
7FD4 : 16;
7FD5 : 02;
7FD6 : 02;
7FD7 : 1a;
7FD8 : 02;
7FD9 : 1e;
7FDA : 20;
7FDB : 1e;
7FDC : 00;
7FDD : 5a;
7FDE : 42;
7FDF : 56;
7FE0 : 56;
7FE1 : 00;
7FE2 : 09;
7FE3 : 07;
7FE4 : 05;
7FE5 : 00;
7FE6 : ca;
7FE7 : 8a;
7FE8 : 8a;
7FE9 : ca;
7FEA : ca;
7FEB : ce;
7FEC : ca;
7FED : ce;
7FEE : ca;
7FEF : ce;
7FF0 : 8e;
7FF1 : 8e;
7FF2 : ce;
7FF3 : ce;
7FF4 : d2;
7FF5 : ce;
7FF6 : d2;
7FF7 : ce;
7FF8 : 00;
7FF9 : ff;
7FFA : 5f;
7FFB : c8;
7FFC : 9e;
7FFD : c7;
7FFE : f0;
7FFF : ff;
END;