DEPTH=8192;
WIDTH=8;
ADDRESS_RADIX=HEX;
DATA_RADIX=HEX;
CONTENT
BEGIN
   0 : 00;
   1 : 00;
   2 : 00;
   3 : 00;
   4 : 00;
   5 : 0f;
   6 : 1f;
   7 : 13;
   8 : 00;
   9 : 00;
   A : 00;
   B : 00;
   C : 00;
   D : 00;
   E : 00;
   F : 00;
  10 : 11;
  11 : 0d;
  12 : 0b;
  13 : 1b;
  14 : 1f;
  15 : 3d;
  16 : 1c;
  17 : 1f;
  18 : 00;
  19 : 00;
  1A : 00;
  1B : 00;
  1C : 00;
  1D : 00;
  1E : 00;
  1F : 00;
  20 : 1b;
  21 : 17;
  22 : 37;
  23 : 3f;
  24 : 7f;
  25 : 0f;
  26 : 0e;
  27 : 1e;
  28 : 00;
  29 : 00;
  2A : 00;
  2B : 00;
  2C : 00;
  2D : 00;
  2E : 00;
  2F : 00;
  30 : 00;
  31 : 00;
  32 : 00;
  33 : 00;
  34 : 00;
  35 : 80;
  36 : c0;
  37 : e0;
  38 : 00;
  39 : 00;
  3A : 00;
  3B : 00;
  3C : 00;
  3D : 00;
  3E : 00;
  3F : 00;
  40 : f0;
  41 : f0;
  42 : f0;
  43 : f0;
  44 : f0;
  45 : e0;
  46 : c0;
  47 : 60;
  48 : 00;
  49 : 00;
  4A : 00;
  4B : 00;
  4C : 00;
  4D : 00;
  4E : 00;
  4F : 00;
  50 : e0;
  51 : 70;
  52 : f8;
  53 : f8;
  54 : fc;
  55 : e4;
  56 : 00;
  57 : 00;
  58 : 00;
  59 : 00;
  5A : 00;
  5B : 00;
  5C : 00;
  5D : 00;
  5E : 00;
  5F : 00;
  60 : 01;
  61 : 07;
  62 : 0f;
  63 : 1e;
  64 : 1c;
  65 : 3f;
  66 : 3f;
  67 : 38;
  68 : 00;
  69 : 00;
  6A : 00;
  6B : 01;
  6C : 03;
  6D : 00;
  6E : 00;
  6F : 07;
  70 : 78;
  71 : 7c;
  72 : ff;
  73 : ff;
  74 : 37;
  75 : 03;
  76 : 00;
  77 : 00;
  78 : 07;
  79 : 03;
  7A : c0;
  7B : f0;
  7C : 30;
  7D : 00;
  7E : 00;
  7F : 00;
  80 : c0;
  81 : f8;
  82 : f0;
  83 : fc;
  84 : fe;
  85 : 9c;
  86 : be;
  87 : fe;
  88 : 00;
  89 : 00;
  8A : 00;
  8B : 00;
  8C : 00;
  8D : 60;
  8E : 40;
  8F : 00;
  90 : 7c;
  91 : 74;
  92 : fc;
  93 : d8;
  94 : 78;
  95 : f0;
  96 : f8;
  97 : 7c;
  98 : 80;
  99 : 88;
  9A : 00;
  9B : 20;
  9C : 80;
  9D : 00;
  9E : 78;
  9F : 7c;
  A0 : 1c;
  A1 : 3a;
  A2 : 71;
  A3 : e1;
  A4 : c3;
  A5 : c6;
  A6 : 6c;
  A7 : 38;
  A8 : 00;
  A9 : 06;
  AA : 0f;
  AB : 1f;
  AC : 3f;
  AD : 3e;
  AE : 1c;
  AF : 18;
  B0 : 06;
  B1 : 09;
  B2 : 13;
  B3 : 26;
  B4 : 4c;
  B5 : 98;
  B6 : b0;
  B7 : 60;
  B8 : 00;
  B9 : 07;
  BA : 0f;
  BB : 1e;
  BC : 3c;
  BD : 78;
  BE : 70;
  BF : 60;
  C0 : 4e;
  C1 : 2c;
  C2 : 18;
  C3 : 00;
  C4 : 00;
  C5 : 00;
  C6 : 00;
  C7 : 00;
  C8 : 34;
  C9 : 10;
  CA : 00;
  CB : 00;
  CC : 00;
  CD : 00;
  CE : 00;
  CF : 00;
  D0 : 00;
  D1 : 00;
  D2 : 00;
  D3 : 00;
  D4 : 00;
  D5 : 00;
  D6 : 00;
  D7 : 00;
  D8 : 00;
  D9 : 00;
  DA : 00;
  DB : 00;
  DC : 00;
  DD : 00;
  DE : 00;
  DF : 00;
  E0 : 0e;
  E1 : 0c;
  E2 : 0c;
  E3 : 0c;
  E4 : 06;
  E5 : 06;
  E6 : 46;
  E7 : 3c;
  E8 : 78;
  E9 : 30;
  EA : 10;
  EB : 30;
  EC : 78;
  ED : 7c;
  EE : 78;
  EF : 20;
  F0 : 00;
  F1 : 00;
  F2 : 00;
  F3 : 00;
  F4 : 00;
  F5 : 00;
  F6 : 00;
  F7 : 00;
  F8 : 00;
  F9 : 00;
  FA : 00;
  FB : 00;
  FC : 00;
  FD : 00;
  FE : 00;
  FF : 00;
 100 : 43;
 101 : 43;
 102 : 67;
 103 : 26;
 104 : 2a;
 105 : 22;
 106 : 16;
 107 : 14;
 108 : fc;
 109 : fc;
 10A : f8;
 10B : 78;
 10C : 74;
 10D : 7c;
 10E : 38;
 10F : 38;
 110 : 3c;
 111 : 1c;
 112 : 18;
 113 : 08;
 114 : 00;
 115 : 00;
 116 : 00;
 117 : 00;
 118 : 38;
 119 : 18;
 11A : 10;
 11B : 00;
 11C : 00;
 11D : 00;
 11E : 00;
 11F : 00;
 120 : 26;
 121 : 12;
 122 : 01;
 123 : 41;
 124 : 08;
 125 : 01;
 126 : 04;
 127 : 00;
 128 : 11;
 129 : 08;
 12A : 00;
 12B : 00;
 12C : 00;
 12D : 00;
 12E : 00;
 12F : 00;
 130 : 02;
 131 : 00;
 132 : 30;
 133 : 00;
 134 : 04;
 135 : 20;
 136 : 10;
 137 : 00;
 138 : 00;
 139 : 10;
 13A : 80;
 13B : 00;
 13C : 00;
 13D : 00;
 13E : 00;
 13F : 00;
 140 : 00;
 141 : 00;
 142 : 04;
 143 : 44;
 144 : 00;
 145 : 00;
 146 : 20;
 147 : 04;
 148 : 00;
 149 : 00;
 14A : 02;
 14B : 00;
 14C : 00;
 14D : 00;
 14E : 00;
 14F : 00;
 150 : 08;
 151 : 00;
 152 : 01;
 153 : 00;
 154 : 10;
 155 : 00;
 156 : 00;
 157 : 00;
 158 : 00;
 159 : 00;
 15A : 00;
 15B : 00;
 15C : 00;
 15D : 00;
 15E : 00;
 15F : 00;
 160 : 01;
 161 : 3a;
 162 : 5c;
 163 : be;
 164 : 5f;
 165 : 3e;
 166 : 1c;
 167 : 00;
 168 : 01;
 169 : 3a;
 16A : 5c;
 16B : be;
 16C : 5f;
 16D : 3e;
 16E : 1c;
 16F : 00;
 170 : 18;
 171 : 3c;
 172 : 7e;
 173 : 5f;
 174 : 2d;
 175 : 32;
 176 : 4c;
 177 : 80;
 178 : 18;
 179 : 3c;
 17A : 7e;
 17B : 5f;
 17C : 2d;
 17D : 32;
 17E : 4c;
 17F : 80;
 180 : 00;
 181 : 00;
 182 : 00;
 183 : 00;
 184 : 01;
 185 : 02;
 186 : 02;
 187 : 1a;
 188 : 00;
 189 : 00;
 18A : 00;
 18B : 00;
 18C : 00;
 18D : 00;
 18E : 00;
 18F : 04;
 190 : 03;
 191 : 07;
 192 : 0e;
 193 : 07;
 194 : 01;
 195 : 03;
 196 : 07;
 197 : 0f;
 198 : 1c;
 199 : 08;
 19A : 00;
 19B : 00;
 19C : 01;
 19D : 03;
 19E : 00;
 19F : 00;
 1A0 : 0f;
 1A1 : 1f;
 1A2 : 1e;
 1A3 : 1d;
 1A4 : 3b;
 1A5 : 3b;
 1A6 : 03;
 1A7 : 81;
 1A8 : 00;
 1A9 : 00;
 1AA : 00;
 1AB : 00;
 1AC : 00;
 1AD : 04;
 1AE : 3d;
 1AF : 3f;
 1B0 : c0;
 1B1 : e0;
 1B2 : f0;
 1B3 : 7c;
 1B4 : 7e;
 1B5 : 38;
 1B6 : 10;
 1B7 : 00;
 1B8 : 1f;
 1B9 : 9f;
 1BA : 8f;
 1BB : 47;
 1BC : 6e;
 1BD : 38;
 1BE : 10;
 1BF : 00;
 1C0 : 00;
 1C1 : 00;
 1C2 : 4c;
 1C3 : fc;
 1C4 : fc;
 1C5 : 78;
 1C6 : 08;
 1C7 : 7c;
 1C8 : 00;
 1C9 : 00;
 1CA : 00;
 1CB : 08;
 1CC : 00;
 1CD : 00;
 1CE : 00;
 1CF : 00;
 1D0 : 7c;
 1D1 : dc;
 1D2 : fc;
 1D3 : f8;
 1D4 : f8;
 1D5 : fc;
 1D6 : fc;
 1D7 : bc;
 1D8 : 00;
 1D9 : 04;
 1DA : 04;
 1DB : 08;
 1DC : c0;
 1DD : 00;
 1DE : 00;
 1DF : 04;
 1E0 : 7c;
 1E1 : 7c;
 1E2 : f8;
 1E3 : f8;
 1E4 : f8;
 1E5 : f0;
 1E6 : 82;
 1E7 : 3a;
 1E8 : 0c;
 1E9 : 0c;
 1EA : 18;
 1EB : 38;
 1EC : 70;
 1ED : ec;
 1EE : fc;
 1EF : cc;
 1F0 : 7c;
 1F1 : 7c;
 1F2 : fe;
 1F3 : fe;
 1F4 : 7e;
 1F5 : 1e;
 1F6 : 3c;
 1F7 : 78;
 1F8 : 8c;
 1F9 : 8c;
 1FA : 06;
 1FB : 06;
 1FC : 02;
 1FD : 02;
 1FE : 04;
 1FF : 00;
 200 : 00;
 201 : 00;
 202 : 00;
 203 : 01;
 204 : 02;
 205 : 02;
 206 : 1a;
 207 : 03;
 208 : 00;
 209 : 00;
 20A : 00;
 20B : 00;
 20C : 00;
 20D : 00;
 20E : 04;
 20F : 1c;
 210 : 07;
 211 : 0e;
 212 : 07;
 213 : 01;
 214 : 03;
 215 : 07;
 216 : 0f;
 217 : 0f;
 218 : 08;
 219 : 00;
 21A : 00;
 21B : 01;
 21C : 03;
 21D : 00;
 21E : 00;
 21F : 00;
 220 : 1f;
 221 : 1f;
 222 : 1f;
 223 : 3f;
 224 : 3c;
 225 : 00;
 226 : 00;
 227 : 01;
 228 : 00;
 229 : 00;
 22A : 00;
 22B : 00;
 22C : 03;
 22D : 3f;
 22E : 3f;
 22F : 1e;
 230 : 01;
 231 : 03;
 232 : 03;
 233 : 0f;
 234 : 1f;
 235 : 00;
 236 : 01;
 237 : 03;
 238 : 1e;
 239 : 0c;
 23A : 04;
 23B : 02;
 23C : 01;
 23D : 00;
 23E : 00;
 23F : 00;
 240 : 00;
 241 : 4c;
 242 : fc;
 243 : fc;
 244 : 78;
 245 : 08;
 246 : 7c;
 247 : 7c;
 248 : 00;
 249 : 00;
 24A : 08;
 24B : 00;
 24C : 00;
 24D : 00;
 24E : 00;
 24F : 00;
 250 : dc;
 251 : fc;
 252 : f8;
 253 : fc;
 254 : fc;
 255 : fe;
 256 : fe;
 257 : de;
 258 : 04;
 259 : 04;
 25A : 08;
 25B : c0;
 25C : 00;
 25D : 00;
 25E : 02;
 25F : 02;
 260 : de;
 261 : de;
 262 : dc;
 263 : bc;
 264 : 38;
 265 : 7a;
 266 : 72;
 267 : b8;
 268 : 02;
 269 : 06;
 26A : 04;
 26B : 0c;
 26C : 8c;
 26D : 1c;
 26E : 1c;
 26F : 3c;
 270 : fc;
 271 : fc;
 272 : f8;
 273 : f8;
 274 : f0;
 275 : f8;
 276 : f8;
 277 : e0;
 278 : 0c;
 279 : 1c;
 27A : 18;
 27B : 38;
 27C : 30;
 27D : 18;
 27E : 18;
 27F : 20;
 280 : 00;
 281 : 00;
 282 : 00;
 283 : 00;
 284 : 01;
 285 : 02;
 286 : 02;
 287 : 1a;
 288 : 00;
 289 : 00;
 28A : 00;
 28B : 00;
 28C : 00;
 28D : 00;
 28E : 00;
 28F : 1c;
 290 : 03;
 291 : 07;
 292 : 0e;
 293 : 07;
 294 : 01;
 295 : 03;
 296 : 07;
 297 : 0f;
 298 : 1c;
 299 : 08;
 29A : 00;
 29B : 00;
 29C : 01;
 29D : 03;
 29E : 00;
 29F : 00;
 2A0 : 0f;
 2A1 : 1f;
 2A2 : 1f;
 2A3 : 1f;
 2A4 : 3f;
 2A5 : 3e;
 2A6 : 00;
 2A7 : 03;
 2A8 : 00;
 2A9 : 00;
 2AA : 00;
 2AB : 00;
 2AC : 00;
 2AD : 01;
 2AE : 3f;
 2AF : 3c;
 2B0 : 07;
 2B1 : 0f;
 2B2 : 0f;
 2B3 : 0f;
 2B4 : 3f;
 2B5 : 7f;
 2B6 : 1f;
 2B7 : 07;
 2B8 : 18;
 2B9 : 10;
 2BA : 00;
 2BB : 00;
 2BC : 01;
 2BD : 01;
 2BE : 1b;
 2BF : 07;
 2C0 : 00;
 2C1 : 00;
 2C2 : 4c;
 2C3 : fc;
 2C4 : fc;
 2C5 : 78;
 2C6 : 08;
 2C7 : 7c;
 2C8 : 00;
 2C9 : 00;
 2CA : 00;
 2CB : 08;
 2CC : 00;
 2CD : 00;
 2CE : 00;
 2CF : 00;
 2D0 : 7c;
 2D1 : dc;
 2D2 : fc;
 2D3 : f8;
 2D4 : fc;
 2D5 : fe;
 2D6 : fe;
 2D7 : fe;
 2D8 : 00;
 2D9 : 04;
 2DA : 04;
 2DB : 08;
 2DC : c0;
 2DD : 00;
 2DE : 02;
 2DF : 02;
 2E0 : ef;
 2E1 : ef;
 2E2 : f7;
 2E3 : f7;
 2E4 : f7;
 2E5 : 07;
 2E6 : 0f;
 2E7 : 8b;
 2E8 : 03;
 2E9 : 03;
 2EA : 13;
 2EB : 31;
 2EC : 31;
 2ED : f1;
 2EE : e1;
 2EF : 61;
 2F0 : c6;
 2F1 : e0;
 2F2 : e7;
 2F3 : ef;
 2F4 : bf;
 2F5 : 9f;
 2F6 : 06;
 2F7 : 06;
 2F8 : 3a;
 2F9 : 7c;
 2FA : ff;
 2FB : f3;
 2FC : 81;
 2FD : 81;
 2FE : 02;
 2FF : 02;
 300 : 7e;
 301 : fe;
 302 : c0;
 303 : ce;
 304 : c6;
 305 : fe;
 306 : 7e;
 307 : 00;
 308 : 01;
 309 : 01;
 30A : 3f;
 30B : 21;
 30C : 29;
 30D : 01;
 30E : 81;
 30F : 7f;
 310 : 7c;
 311 : fe;
 312 : c6;
 313 : c6;
 314 : c6;
 315 : fe;
 316 : 7c;
 317 : 00;
 318 : 02;
 319 : 01;
 31A : 39;
 31B : 21;
 31C : 21;
 31D : 01;
 31E : 83;
 31F : 7e;
 320 : 38;
 321 : 7c;
 322 : ee;
 323 : c6;
 324 : fe;
 325 : fe;
 326 : c6;
 327 : 00;
 328 : 04;
 329 : 02;
 32A : 11;
 32B : 29;
 32C : 01;
 32D : 01;
 32E : 39;
 32F : c7;
 330 : c6;
 331 : c6;
 332 : c6;
 333 : ee;
 334 : 7c;
 335 : 38;
 336 : 10;
 337 : 00;
 338 : 21;
 339 : 21;
 33A : 21;
 33B : 11;
 33C : 83;
 33D : 46;
 33E : 2c;
 33F : 18;
 340 : 6c;
 341 : fe;
 342 : fe;
 343 : d6;
 344 : d6;
 345 : d6;
 346 : c6;
 347 : 00;
 348 : 12;
 349 : 01;
 34A : 01;
 34B : 29;
 34C : 29;
 34D : 29;
 34E : 39;
 34F : e7;
 350 : 7e;
 351 : fe;
 352 : c0;
 353 : fc;
 354 : c0;
 355 : fe;
 356 : 7e;
 357 : 00;
 358 : 01;
 359 : 01;
 35A : 3f;
 35B : 02;
 35C : 3e;
 35D : 01;
 35E : 81;
 35F : 7f;
 360 : 70;
 361 : 98;
 362 : 68;
 363 : 78;
 364 : d8;
 365 : 78;
 366 : f8;
 367 : 70;
 368 : 0c;
 369 : 06;
 36A : 67;
 36B : 77;
 36C : d7;
 36D : 77;
 36E : 06;
 36F : 0c;
 370 : 7c;
 371 : fe;
 372 : c6;
 373 : de;
 374 : dc;
 375 : ce;
 376 : c6;
 377 : 00;
 378 : 02;
 379 : 01;
 37A : 39;
 37B : 21;
 37C : 22;
 37D : 31;
 37E : 29;
 37F : e7;
 380 : 00;
 381 : 00;
 382 : 00;
 383 : 00;
 384 : 00;
 385 : 00;
 386 : 00;
 387 : 00;
 388 : 00;
 389 : 00;
 38A : 00;
 38B : 00;
 38C : 00;
 38D : 07;
 38E : 0f;
 38F : 1f;
 390 : 0f;
 391 : 1f;
 392 : 3f;
 393 : 3d;
 394 : 00;
 395 : 01;
 396 : 01;
 397 : 01;
 398 : 10;
 399 : 20;
 39A : 07;
 39B : 0d;
 39C : 3f;
 39D : 7f;
 39E : 7f;
 39F : 31;
 3A0 : 00;
 3A1 : 04;
 3A2 : 04;
 3A3 : 08;
 3A4 : 00;
 3A5 : 00;
 3A6 : 1e;
 3A7 : 3e;
 3A8 : 0f;
 3A9 : 0b;
 3AA : 1b;
 3AB : 17;
 3AC : 3f;
 3AD : 0e;
 3AE : 00;
 3AF : 00;
 3B0 : 00;
 3B1 : 00;
 3B2 : 00;
 3B3 : 00;
 3B4 : 00;
 3B5 : 00;
 3B6 : 00;
 3B7 : 00;
 3B8 : 00;
 3B9 : 00;
 3BA : 00;
 3BB : 00;
 3BC : 00;
 3BD : c0;
 3BE : e0;
 3BF : f0;
 3C0 : e0;
 3C1 : f0;
 3C2 : f8;
 3C3 : 78;
 3C4 : f0;
 3C5 : e0;
 3C6 : e0;
 3C7 : c0;
 3C8 : 10;
 3C9 : 08;
 3CA : c0;
 3CB : 60;
 3CC : c0;
 3CD : f0;
 3CE : f8;
 3CF : f8;
 3D0 : 80;
 3D1 : 40;
 3D2 : 4c;
 3D3 : 28;
 3D4 : 00;
 3D5 : 00;
 3D6 : f0;
 3D7 : f8;
 3D8 : ec;
 3D9 : ac;
 3DA : bc;
 3DB : d8;
 3DC : f8;
 3DD : e0;
 3DE : 00;
 3DF : 00;
 3E0 : 00;
 3E1 : 00;
 3E2 : 00;
 3E3 : 00;
 3E4 : 00;
 3E5 : 01;
 3E6 : 01;
 3E7 : 00;
 3E8 : 00;
 3E9 : 00;
 3EA : 00;
 3EB : 01;
 3EC : 07;
 3ED : 0e;
 3EE : 1f;
 3EF : 3f;
 3F0 : 00;
 3F1 : 00;
 3F2 : 00;
 3F3 : 00;
 3F4 : 00;
 3F5 : 00;
 3F6 : 00;
 3F7 : 00;
 3F8 : 78;
 3F9 : c0;
 3FA : 00;
 3FB : 00;
 3FC : 00;
 3FD : 00;
 3FE : 00;
 3FF : 00;
 400 : 00;
 401 : 00;
 402 : 00;
 403 : 70;
 404 : f0;
 405 : f0;
 406 : e0;
 407 : 00;
 408 : 00;
 409 : 38;
 40A : fe;
 40B : 9e;
 40C : 1c;
 40D : 3c;
 40E : fe;
 40F : ff;
 410 : 00;
 411 : 00;
 412 : 02;
 413 : 01;
 414 : 00;
 415 : 00;
 416 : 00;
 417 : 00;
 418 : 1f;
 419 : 3f;
 41A : 31;
 41B : 60;
 41C : c0;
 41D : 80;
 41E : 00;
 41F : 00;
 420 : 00;
 421 : 00;
 422 : 03;
 423 : 1f;
 424 : 1f;
 425 : 0f;
 426 : 0f;
 427 : 0f;
 428 : 1f;
 429 : 3f;
 42A : 3c;
 42B : 60;
 42C : 60;
 42D : 30;
 42E : 30;
 42F : 70;
 430 : 1f;
 431 : 3f;
 432 : ff;
 433 : ff;
 434 : ff;
 435 : 7f;
 436 : 3f;
 437 : 34;
 438 : e0;
 439 : c0;
 43A : 00;
 43B : 00;
 43C : 01;
 43D : 1d;
 43E : 3f;
 43F : 34;
 440 : 00;
 441 : 00;
 442 : c0;
 443 : fe;
 444 : f0;
 445 : c0;
 446 : 80;
 447 : 80;
 448 : c0;
 449 : f8;
 44A : 3e;
 44B : 01;
 44C : 00;
 44D : 00;
 44E : 00;
 44F : 00;
 450 : 80;
 451 : c0;
 452 : e0;
 453 : f0;
 454 : e0;
 455 : 80;
 456 : 00;
 457 : 00;
 458 : 47;
 459 : 2e;
 45A : 1c;
 45B : 0f;
 45C : 00;
 45D : 00;
 45E : 00;
 45F : 00;
 460 : 00;
 461 : 00;
 462 : 00;
 463 : 00;
 464 : 00;
 465 : 00;
 466 : 01;
 467 : 01;
 468 : 00;
 469 : 00;
 46A : 00;
 46B : 00;
 46C : 01;
 46D : 07;
 46E : 0e;
 46F : 1f;
 470 : 00;
 471 : 00;
 472 : 00;
 473 : 00;
 474 : 00;
 475 : 00;
 476 : 00;
 477 : 00;
 478 : 3f;
 479 : 78;
 47A : c0;
 47B : 03;
 47C : 00;
 47D : 00;
 47E : 00;
 47F : 00;
 480 : 00;
 481 : 00;
 482 : 00;
 483 : 00;
 484 : 70;
 485 : f0;
 486 : f0;
 487 : e0;
 488 : 00;
 489 : 00;
 48A : 38;
 48B : fe;
 48C : 9e;
 48D : 1c;
 48E : 3c;
 48F : fe;
 490 : 00;
 491 : 00;
 492 : 00;
 493 : 00;
 494 : 00;
 495 : 00;
 496 : 00;
 497 : 00;
 498 : ff;
 499 : 1f;
 49A : ff;
 49B : f0;
 49C : 00;
 49D : 00;
 49E : 00;
 49F : 00;
 4A0 : 00;
 4A1 : 00;
 4A2 : 00;
 4A3 : 00;
 4A4 : 00;
 4A5 : 00;
 4A6 : 00;
 4A7 : 00;
 4A8 : 00;
 4A9 : 00;
 4AA : 00;
 4AB : 00;
 4AC : 3f;
 4AD : 7f;
 4AE : 7f;
 4AF : 3f;
 4B0 : 20;
 4B1 : 1e;
 4B2 : 1f;
 4B3 : bf;
 4B4 : 7f;
 4B5 : 3f;
 4B6 : 3c;
 4B7 : 34;
 4B8 : df;
 4B9 : e1;
 4BA : e0;
 4BB : 40;
 4BC : 01;
 4BD : 1f;
 4BE : 3c;
 4BF : 34;
 4C0 : 00;
 4C1 : 00;
 4C2 : 00;
 4C3 : 00;
 4C4 : 00;
 4C5 : 00;
 4C6 : 00;
 4C7 : 00;
 4C8 : 00;
 4C9 : 00;
 4CA : 00;
 4CB : 00;
 4CC : 80;
 4CD : c0;
 4CE : f0;
 4CF : fc;
 4D0 : 00;
 4D1 : 00;
 4D2 : e0;
 4D3 : f0;
 4D4 : c0;
 4D5 : 00;
 4D6 : 00;
 4D7 : 00;
 4D8 : ff;
 4D9 : fc;
 4DA : 10;
 4DB : 0e;
 4DC : 07;
 4DD : 00;
 4DE : 00;
 4DF : 00;
 4E0 : 00;
 4E1 : 00;
 4E2 : 00;
 4E3 : 00;
 4E4 : 00;
 4E5 : 00;
 4E6 : 00;
 4E7 : 00;
 4E8 : 00;
 4E9 : 00;
 4EA : 00;
 4EB : 00;
 4EC : 00;
 4ED : 00;
 4EE : 7c;
 4EF : ff;
 4F0 : 00;
 4F1 : 00;
 4F2 : 00;
 4F3 : 00;
 4F4 : 00;
 4F5 : 00;
 4F6 : 38;
 4F7 : 34;
 4F8 : ff;
 4F9 : ff;
 4FA : ff;
 4FB : 7f;
 4FC : 3f;
 4FD : 1f;
 4FE : 3f;
 4FF : 35;
 500 : 00;
 501 : 00;
 502 : 00;
 503 : 00;
 504 : 00;
 505 : 00;
 506 : 00;
 507 : 00;
 508 : 00;
 509 : 00;
 50A : 00;
 50B : 00;
 50C : 00;
 50D : 00;
 50E : 00;
 50F : 81;
 510 : 00;
 511 : 40;
 512 : 20;
 513 : 10;
 514 : 00;
 515 : 00;
 516 : 00;
 517 : 00;
 518 : e7;
 519 : be;
 51A : dc;
 51B : ef;
 51C : f0;
 51D : ff;
 51E : fe;
 51F : f8;
 520 : 01;
 521 : 03;
 522 : 03;
 523 : 07;
 524 : 01;
 525 : 00;
 526 : 00;
 527 : 06;
 528 : 01;
 529 : 03;
 52A : 03;
 52B : 07;
 52C : 03;
 52D : 07;
 52E : 07;
 52F : 09;
 530 : 04;
 531 : 00;
 532 : 10;
 533 : 30;
 534 : 20;
 535 : 00;
 536 : 00;
 537 : 00;
 538 : 19;
 539 : 3f;
 53A : 6f;
 53B : 4f;
 53C : 5f;
 53D : 7f;
 53E : 3f;
 53F : 1f;
 540 : e0;
 541 : f0;
 542 : f0;
 543 : f0;
 544 : b8;
 545 : 80;
 546 : 00;
 547 : c0;
 548 : e0;
 549 : f0;
 54A : f0;
 54B : f0;
 54C : f8;
 54D : f0;
 54E : f0;
 54F : 30;
 550 : 40;
 551 : 00;
 552 : 00;
 553 : 00;
 554 : 00;
 555 : 00;
 556 : 00;
 557 : 00;
 558 : 30;
 559 : f0;
 55A : f0;
 55B : f0;
 55C : e0;
 55D : e0;
 55E : c0;
 55F : 80;
 560 : 00;
 561 : 00;
 562 : 00;
 563 : 00;
 564 : 00;
 565 : 0e;
 566 : 1f;
 567 : 13;
 568 : 00;
 569 : 00;
 56A : 00;
 56B : 00;
 56C : 00;
 56D : 01;
 56E : 00;
 56F : 00;
 570 : 11;
 571 : 0d;
 572 : 0b;
 573 : 1b;
 574 : 1d;
 575 : 3d;
 576 : 1c;
 577 : 0f;
 578 : 00;
 579 : 0c;
 57A : 0a;
 57B : 1a;
 57C : 1e;
 57D : 00;
 57E : 0c;
 57F : 1f;
 580 : 1b;
 581 : 17;
 582 : 37;
 583 : 3e;
 584 : 0e;
 585 : 00;
 586 : 0e;
 587 : 1e;
 588 : 1b;
 589 : 17;
 58A : 37;
 58B : 3f;
 58C : 7f;
 58D : 0f;
 58E : 00;
 58F : 00;
 590 : 00;
 591 : 00;
 592 : 00;
 593 : 00;
 594 : 00;
 595 : 00;
 596 : 00;
 597 : 80;
 598 : 00;
 599 : 00;
 59A : 00;
 59B : 00;
 59C : 00;
 59D : 80;
 59E : c0;
 59F : 60;
 5A0 : 80;
 5A1 : 80;
 5A2 : 80;
 5A3 : 80;
 5A4 : 80;
 5A5 : 80;
 5A6 : 00;
 5A7 : 00;
 5A8 : 70;
 5A9 : 70;
 5AA : 70;
 5AB : 70;
 5AC : 70;
 5AD : 60;
 5AE : c0;
 5AF : 60;
 5B0 : 80;
 5B1 : 00;
 5B2 : 80;
 5B3 : e8;
 5B4 : 7c;
 5B5 : 04;
 5B6 : 00;
 5B7 : 00;
 5B8 : e0;
 5B9 : 70;
 5BA : f8;
 5BB : f0;
 5BC : f0;
 5BD : e0;
 5BE : 00;
 5BF : 00;
 5C0 : 00;
 5C1 : 00;
 5C2 : 00;
 5C3 : 00;
 5C4 : 07;
 5C5 : 0f;
 5C6 : 09;
 5C7 : 08;
 5C8 : 00;
 5C9 : 00;
 5CA : 00;
 5CB : 00;
 5CC : 00;
 5CD : 00;
 5CE : 00;
 5CF : 00;
 5D0 : 06;
 5D1 : 05;
 5D2 : 0d;
 5D3 : 0e;
 5D4 : 1e;
 5D5 : 0e;
 5D6 : 00;
 5D7 : 0b;
 5D8 : 06;
 5D9 : 05;
 5DA : 0d;
 5DB : 0f;
 5DC : 00;
 5DD : 00;
 5DE : 0f;
 5DF : 07;
 5E0 : 14;
 5E1 : 15;
 5E2 : 05;
 5E3 : 07;
 5E4 : 07;
 5E5 : 0f;
 5E6 : 00;
 5E7 : 01;
 5E8 : 0c;
 5E9 : 0d;
 5EA : 3d;
 5EB : 3f;
 5EC : 1f;
 5ED : 03;
 5EE : 00;
 5EF : 00;
 5F0 : 00;
 5F1 : 00;
 5F2 : 00;
 5F3 : 00;
 5F4 : 00;
 5F5 : 80;
 5F6 : c0;
 5F7 : c0;
 5F8 : 00;
 5F9 : 00;
 5FA : 00;
 5FB : 00;
 5FC : c0;
 5FD : 60;
 5FE : 30;
 5FF : 38;
 600 : c0;
 601 : c0;
 602 : c0;
 603 : c0;
 604 : c0;
 605 : 00;
 606 : 00;
 607 : 80;
 608 : 38;
 609 : 38;
 60A : 38;
 60B : 38;
 60C : 30;
 60D : 60;
 60E : 30;
 60F : b8;
 610 : c0;
 611 : d8;
 612 : fc;
 613 : c0;
 614 : c0;
 615 : 80;
 616 : e0;
 617 : e0;
 618 : d8;
 619 : d8;
 61A : fc;
 61B : f8;
 61C : fc;
 61D : f0;
 61E : 00;
 61F : 00;
 620 : 00;
 621 : 00;
 622 : 00;
 623 : 00;
 624 : 07;
 625 : 0f;
 626 : 09;
 627 : 08;
 628 : 00;
 629 : 00;
 62A : 00;
 62B : 00;
 62C : 00;
 62D : 00;
 62E : 00;
 62F : 00;
 630 : 06;
 631 : 05;
 632 : 0d;
 633 : 0e;
 634 : 1e;
 635 : 6e;
 636 : 60;
 637 : 08;
 638 : 06;
 639 : 05;
 63A : 0d;
 63B : 0f;
 63C : 00;
 63D : 60;
 63E : 7f;
 63F : 3f;
 640 : 00;
 641 : 11;
 642 : 02;
 643 : 71;
 644 : 38;
 645 : 18;
 646 : 00;
 647 : 00;
 648 : 3f;
 649 : 0f;
 64A : 3e;
 64B : 0f;
 64C : 07;
 64D : 01;
 64E : 00;
 64F : 00;
 650 : 00;
 651 : 00;
 652 : 00;
 653 : 00;
 654 : 00;
 655 : 80;
 656 : c0;
 657 : c0;
 658 : 00;
 659 : 00;
 65A : 00;
 65B : 00;
 65C : c0;
 65D : 60;
 65E : 30;
 65F : 38;
 660 : c0;
 661 : c0;
 662 : c0;
 663 : c0;
 664 : c0;
 665 : 00;
 666 : 02;
 667 : 4c;
 668 : 38;
 669 : 38;
 66A : 38;
 66B : 38;
 66C : 30;
 66D : 60;
 66E : 3a;
 66F : 7c;
 670 : ec;
 671 : 70;
 672 : f8;
 673 : 78;
 674 : b6;
 675 : 6e;
 676 : 06;
 677 : 0e;
 678 : fc;
 679 : 78;
 67A : fe;
 67B : 7c;
 67C : b8;
 67D : f0;
 67E : 00;
 67F : 00;
 680 : 00;
 681 : 00;
 682 : 00;
 683 : 00;
 684 : 30;
 685 : 79;
 686 : 3f;
 687 : 1f;
 688 : 00;
 689 : 00;
 68A : 00;
 68B : 00;
 68C : 00;
 68D : 00;
 68E : 00;
 68F : 00;
 690 : 1f;
 691 : 0f;
 692 : 2f;
 693 : bb;
 694 : e7;
 695 : ff;
 696 : ff;
 697 : ff;
 698 : 00;
 699 : 00;
 69A : 00;
 69B : 00;
 69C : 00;
 69D : 00;
 69E : 00;
 69F : 00;
 6A0 : 7e;
 6A1 : 0e;
 6A2 : 07;
 6A3 : 07;
 6A4 : 03;
 6A5 : 03;
 6A6 : 03;
 6A7 : 01;
 6A8 : 00;
 6A9 : 00;
 6AA : 00;
 6AB : 00;
 6AC : 00;
 6AD : 00;
 6AE : 00;
 6AF : 00;
 6B0 : 00;
 6B1 : 00;
 6B2 : 00;
 6B3 : 7c;
 6B4 : fe;
 6B5 : de;
 6B6 : e7;
 6B7 : d7;
 6B8 : 00;
 6B9 : 00;
 6BA : 00;
 6BB : 00;
 6BC : 00;
 6BD : 00;
 6BE : 00;
 6BF : 00;
 6C0 : 9b;
 6C1 : e7;
 6C2 : af;
 6C3 : ff;
 6C4 : fe;
 6C5 : fc;
 6C6 : 7e;
 6C7 : 7f;
 6C8 : 00;
 6C9 : 00;
 6CA : 00;
 6CB : 00;
 6CC : 00;
 6CD : 00;
 6CE : 00;
 6CF : 00;
 6D0 : 6f;
 6D1 : 47;
 6D2 : e7;
 6D3 : f2;
 6D4 : c0;
 6D5 : e0;
 6D6 : e0;
 6D7 : c0;
 6D8 : 00;
 6D9 : 00;
 6DA : 00;
 6DB : 00;
 6DC : 00;
 6DD : 00;
 6DE : 00;
 6DF : 00;
 6E0 : 00;
 6E1 : 00;
 6E2 : 00;
 6E3 : 00;
 6E4 : 3e;
 6E5 : 71;
 6E6 : 7d;
 6E7 : 7f;
 6E8 : 00;
 6E9 : 00;
 6EA : 00;
 6EB : 00;
 6EC : 3e;
 6ED : 71;
 6EE : 7d;
 6EF : 7f;
 6F0 : 08;
 6F1 : 14;
 6F2 : 2a;
 6F3 : 5e;
 6F4 : 7e;
 6F5 : 7c;
 6F6 : 3a;
 6F7 : 11;
 6F8 : 08;
 6F9 : 14;
 6FA : 2a;
 6FB : 5e;
 6FC : 7e;
 6FD : 7c;
 6FE : 3a;
 6FF : 11;
 700 : 01;
 701 : 00;
 702 : 00;
 703 : 00;
 704 : 00;
 705 : 00;
 706 : 03;
 707 : 02;
 708 : 01;
 709 : 00;
 70A : 00;
 70B : 00;
 70C : 03;
 70D : 07;
 70E : 04;
 70F : 0c;
 710 : 00;
 711 : 00;
 712 : 00;
 713 : 00;
 714 : 00;
 715 : 00;
 716 : 00;
 717 : 00;
 718 : 0f;
 719 : 1f;
 71A : 17;
 71B : 3e;
 71C : 3b;
 71D : 6e;
 71E : fc;
 71F : f0;
 720 : a4;
 721 : ee;
 722 : 6e;
 723 : 7c;
 724 : 7c;
 725 : 38;
 726 : 00;
 727 : 00;
 728 : a4;
 729 : ee;
 72A : 6e;
 72B : 7c;
 72C : fc;
 72D : f8;
 72E : e0;
 72F : f0;
 730 : 40;
 731 : c0;
 732 : 00;
 733 : 00;
 734 : 00;
 735 : 00;
 736 : 00;
 737 : 00;
 738 : 30;
 739 : 30;
 73A : e0;
 73B : c0;
 73C : 80;
 73D : 00;
 73E : 00;
 73F : 00;
 740 : 00;
 741 : 00;
 742 : 00;
 743 : 00;
 744 : 00;
 745 : 03;
 746 : 07;
 747 : 04;
 748 : 00;
 749 : 00;
 74A : 00;
 74B : 00;
 74C : 00;
 74D : 00;
 74E : 00;
 74F : 00;
 750 : 04;
 751 : 03;
 752 : 02;
 753 : 06;
 754 : 07;
 755 : 0f;
 756 : 07;
 757 : 00;
 758 : 00;
 759 : 03;
 75A : 02;
 75B : 06;
 75C : 07;
 75D : 00;
 75E : 01;
 75F : 0c;
 760 : 06;
 761 : 1a;
 762 : 0b;
 763 : 03;
 764 : 01;
 765 : 6e;
 766 : 37;
 767 : 1b;
 768 : 1a;
 769 : 1e;
 76A : 07;
 76B : 1f;
 76C : 3f;
 76D : 01;
 76E : 00;
 76F : 00;
 770 : 00;
 771 : 00;
 772 : 00;
 773 : 00;
 774 : 00;
 775 : 80;
 776 : c0;
 777 : e0;
 778 : 00;
 779 : 00;
 77A : 00;
 77B : 00;
 77C : 00;
 77D : 60;
 77E : 30;
 77F : 18;
 780 : 60;
 781 : 60;
 782 : e0;
 783 : e0;
 784 : 60;
 785 : 60;
 786 : 00;
 787 : 00;
 788 : 1c;
 789 : 1c;
 78A : 9c;
 78B : 9c;
 78C : 9c;
 78D : 18;
 78E : 30;
 78F : 00;
 790 : e0;
 791 : fe;
 792 : ec;
 793 : e0;
 794 : c0;
 795 : 01;
 796 : 04;
 797 : c0;
 798 : fc;
 799 : fe;
 79A : fc;
 79B : f8;
 79C : f8;
 79D : f0;
 79E : e0;
 79F : 00;
 7A0 : 00;
 7A1 : 00;
 7A2 : 00;
 7A3 : 00;
 7A4 : 00;
 7A5 : 01;
 7A6 : 01;
 7A7 : 01;
 7A8 : 00;
 7A9 : 00;
 7AA : 00;
 7AB : 00;
 7AC : 00;
 7AD : 00;
 7AE : 00;
 7AF : 00;
 7B0 : 00;
 7B1 : 00;
 7B2 : 01;
 7B3 : 01;
 7B4 : 07;
 7B5 : 0f;
 7B6 : 00;
 7B7 : 10;
 7B8 : 00;
 7B9 : 00;
 7BA : 01;
 7BB : 01;
 7BC : 00;
 7BD : 00;
 7BE : 1f;
 7BF : 0f;
 7C0 : 00;
 7C1 : 20;
 7C2 : 00;
 7C3 : 00;
 7C4 : 00;
 7C5 : 01;
 7C6 : 03;
 7C7 : 07;
 7C8 : 3e;
 7C9 : 1e;
 7CA : 7f;
 7CB : 7f;
 7CC : ff;
 7CD : 06;
 7CE : 00;
 7CF : 00;
 7D0 : 7f;
 7D1 : 3e;
 7D2 : 08;
 7D3 : 08;
 7D4 : e8;
 7D5 : f8;
 7D6 : 3c;
 7D7 : 1c;
 7D8 : 7f;
 7D9 : 3e;
 7DA : 08;
 7DB : 08;
 7DC : 08;
 7DD : 0c;
 7DE : 0a;
 7DF : 1b;
 7E0 : dc;
 7E1 : a4;
 7E2 : a4;
 7E3 : c4;
 7E4 : 84;
 7E5 : 88;
 7E6 : 00;
 7E7 : 00;
 7E8 : db;
 7E9 : bb;
 7EA : bb;
 7EB : fb;
 7EC : 3a;
 7ED : 34;
 7EE : 30;
 7EF : 20;
 7F0 : 00;
 7F1 : 00;
 7F2 : 00;
 7F3 : 00;
 7F4 : 00;
 7F5 : c0;
 7F6 : c0;
 7F7 : 80;
 7F8 : 60;
 7F9 : 40;
 7FA : c0;
 7FB : e0;
 7FC : 80;
 7FD : 00;
 7FE : 00;
 7FF : 00;
 800 : 00;
 801 : 00;
 802 : 00;
 803 : 00;
 804 : 0e;
 805 : 1f;
 806 : 13;
 807 : 11;
 808 : 00;
 809 : 00;
 80A : 00;
 80B : 00;
 80C : 01;
 80D : 00;
 80E : 00;
 80F : 00;
 810 : ed;
 811 : eb;
 812 : 43;
 813 : 01;
 814 : 00;
 815 : 00;
 816 : 00;
 817 : 00;
 818 : ec;
 819 : fa;
 81A : 7a;
 81B : 3e;
 81C : 1f;
 81D : 0f;
 81E : 0f;
 81F : 07;
 820 : 0a;
 821 : 01;
 822 : 09;
 823 : 00;
 824 : 01;
 825 : 05;
 826 : 07;
 827 : 03;
 828 : 05;
 829 : 0e;
 82A : 06;
 82B : 0f;
 82C : 1e;
 82D : 00;
 82E : 00;
 82F : 00;
 830 : 00;
 831 : 00;
 832 : 00;
 833 : 00;
 834 : 00;
 835 : 00;
 836 : 80;
 837 : 80;
 838 : 00;
 839 : 00;
 83A : 00;
 83B : 00;
 83C : 80;
 83D : c0;
 83E : 60;
 83F : 70;
 840 : 80;
 841 : 80;
 842 : 80;
 843 : 80;
 844 : 80;
 845 : 00;
 846 : 00;
 847 : 00;
 848 : 70;
 849 : 70;
 84A : 70;
 84B : 70;
 84C : 60;
 84D : c0;
 84E : e0;
 84F : f0;
 850 : 00;
 851 : 00;
 852 : 00;
 853 : 00;
 854 : 00;
 855 : 80;
 856 : c0;
 857 : 80;
 858 : f0;
 859 : f8;
 85A : 78;
 85B : fc;
 85C : f8;
 85D : 60;
 85E : 00;
 85F : 00;
 860 : 00;
 861 : 00;
 862 : 00;
 863 : 00;
 864 : 00;
 865 : 00;
 866 : 78;
 867 : fc;
 868 : 00;
 869 : 00;
 86A : 00;
 86B : 00;
 86C : 00;
 86D : 00;
 86E : 06;
 86F : 03;
 870 : 9c;
 871 : 8c;
 872 : 6c;
 873 : 5c;
 874 : dc;
 875 : ec;
 876 : 68;
 877 : 20;
 878 : 03;
 879 : 03;
 87A : 63;
 87B : 53;
 87C : d3;
 87D : f3;
 87E : 67;
 87F : 00;
 880 : 00;
 881 : 00;
 882 : 00;
 883 : 64;
 884 : 76;
 885 : 5f;
 886 : 8f;
 887 : 86;
 888 : 1f;
 889 : 3d;
 88A : 38;
 88B : 72;
 88C : 61;
 88D : 40;
 88E : 80;
 88F : 80;
 890 : 00;
 891 : 00;
 892 : 00;
 893 : 00;
 894 : 00;
 895 : 00;
 896 : 00;
 897 : 00;
 898 : 00;
 899 : 00;
 89A : 00;
 89B : 00;
 89C : 00;
 89D : 00;
 89E : 00;
 89F : 00;
 8A0 : 00;
 8A1 : 00;
 8A2 : 00;
 8A3 : 00;
 8A4 : 00;
 8A5 : 00;
 8A6 : 00;
 8A7 : 00;
 8A8 : 80;
 8A9 : 80;
 8AA : 80;
 8AB : 80;
 8AC : 80;
 8AD : 80;
 8AE : 80;
 8AF : c0;
 8B0 : 00;
 8B1 : 00;
 8B2 : 00;
 8B3 : 00;
 8B4 : 00;
 8B5 : 00;
 8B6 : 00;
 8B7 : 00;
 8B8 : e0;
 8B9 : e0;
 8BA : 60;
 8BB : 70;
 8BC : f8;
 8BD : f0;
 8BE : 00;
 8BF : 00;
 8C0 : 00;
 8C1 : 00;
 8C2 : 00;
 8C3 : 00;
 8C4 : 00;
 8C5 : 01;
 8C6 : 01;
 8C7 : 01;
 8C8 : 00;
 8C9 : 00;
 8CA : 00;
 8CB : 00;
 8CC : 00;
 8CD : 01;
 8CE : 01;
 8CF : 01;
 8D0 : 03;
 8D1 : 03;
 8D2 : 04;
 8D3 : 00;
 8D4 : 08;
 8D5 : 00;
 8D6 : 00;
 8D7 : 00;
 8D8 : 00;
 8D9 : 04;
 8DA : 03;
 8DB : 07;
 8DC : 06;
 8DD : 0e;
 8DE : 1f;
 8DF : 0f;
 8E0 : 00;
 8E1 : 00;
 8E2 : 01;
 8E3 : 00;
 8E4 : 01;
 8E5 : 00;
 8E6 : 00;
 8E7 : 00;
 8E8 : 07;
 8E9 : 03;
 8EA : 00;
 8EB : 00;
 8EC : 00;
 8ED : 00;
 8EE : 00;
 8EF : 00;
 8F0 : 30;
 8F1 : 78;
 8F2 : 5c;
 8F3 : 8c;
 8F4 : ec;
 8F5 : dc;
 8F6 : 93;
 8F7 : e3;
 8F8 : 00;
 8F9 : 04;
 8FA : 02;
 8FB : 02;
 8FC : e3;
 8FD : d3;
 8FE : 9f;
 8FF : ff;
 900 : c2;
 901 : 04;
 902 : 00;
 903 : 00;
 904 : 00;
 905 : 00;
 906 : 00;
 907 : 06;
 908 : 3e;
 909 : fa;
 90A : b8;
 90B : 70;
 90C : 70;
 90D : 78;
 90E : fc;
 90F : f8;
 910 : 0e;
 911 : 8e;
 912 : c2;
 913 : c0;
 914 : 80;
 915 : 00;
 916 : 00;
 917 : 00;
 918 : e0;
 919 : 70;
 91A : 20;
 91B : 00;
 91C : 00;
 91D : 00;
 91E : 00;
 91F : 00;
 920 : 01;
 921 : 01;
 922 : 03;
 923 : 02;
 924 : 00;
 925 : 00;
 926 : 08;
 927 : 11;
 928 : 01;
 929 : 01;
 92A : 03;
 92B : 03;
 92C : 01;
 92D : 01;
 92E : 01;
 92F : 01;
 930 : 3b;
 931 : 12;
 932 : 40;
 933 : 70;
 934 : 60;
 935 : 60;
 936 : 00;
 937 : 00;
 938 : 04;
 939 : 0d;
 93A : 0e;
 93B : 0e;
 93C : 1e;
 93D : 1f;
 93E : 0f;
 93F : 03;
 940 : 00;
 941 : 00;
 942 : 00;
 943 : 00;
 944 : 00;
 945 : 00;
 946 : 00;
 947 : 00;
 948 : 00;
 949 : 00;
 94A : 00;
 94B : 00;
 94C : 00;
 94D : 00;
 94E : 00;
 94F : 00;
 950 : b0;
 951 : f8;
 952 : 5c;
 953 : 0c;
 954 : 2c;
 955 : 1c;
 956 : 1c;
 957 : 08;
 958 : 80;
 959 : 84;
 95A : 82;
 95B : 82;
 95C : e3;
 95D : d3;
 95E : f3;
 95F : f7;
 960 : 00;
 961 : 00;
 962 : 00;
 963 : 00;
 964 : 00;
 965 : 00;
 966 : 00;
 967 : 00;
 968 : f6;
 969 : fe;
 96A : f8;
 96B : f0;
 96C : 70;
 96D : 70;
 96E : f0;
 96F : f8;
 970 : 00;
 971 : 00;
 972 : 00;
 973 : 00;
 974 : 00;
 975 : 00;
 976 : 00;
 977 : 00;
 978 : e0;
 979 : 00;
 97A : 00;
 97B : 00;
 97C : 00;
 97D : 00;
 97E : 00;
 97F : 00;
 980 : 00;
 981 : 00;
 982 : 00;
 983 : 04;
 984 : 3c;
 985 : fe;
 986 : f1;
 987 : 43;
 988 : 00;
 989 : 00;
 98A : 00;
 98B : 00;
 98C : 00;
 98D : 00;
 98E : 40;
 98F : 00;
 990 : 43;
 991 : e3;
 992 : ff;
 993 : f3;
 994 : e3;
 995 : 67;
 996 : 3f;
 997 : 7f;
 998 : 0c;
 999 : 1c;
 99A : 00;
 99B : 00;
 99C : 00;
 99D : 00;
 99E : 01;
 99F : 00;
 9A0 : ff;
 9A1 : f7;
 9A2 : f7;
 9A3 : f7;
 9A4 : fb;
 9A5 : 7e;
 9A6 : f8;
 9A7 : a8;
 9A8 : 10;
 9A9 : 30;
 9AA : 30;
 9AB : 10;
 9AC : 18;
 9AD : 0d;
 9AE : 0b;
 9AF : 0f;
 9B0 : 20;
 9B1 : 00;
 9B2 : 30;
 9B3 : 3f;
 9B4 : 1f;
 9B5 : 1f;
 9B6 : 03;
 9B7 : 07;
 9B8 : 47;
 9B9 : 3f;
 9BA : 0f;
 9BB : 03;
 9BC : 01;
 9BD : 00;
 9BE : 00;
 9BF : 00;
 9C0 : 00;
 9C1 : 00;
 9C2 : 00;
 9C3 : 00;
 9C4 : 00;
 9C5 : 00;
 9C6 : 80;
 9C7 : dc;
 9C8 : 00;
 9C9 : 00;
 9CA : 00;
 9CB : 00;
 9CC : 00;
 9CD : 00;
 9CE : 80;
 9CF : c4;
 9D0 : ff;
 9D1 : fe;
 9D2 : ff;
 9D3 : fe;
 9D4 : f2;
 9D5 : f0;
 9D6 : e0;
 9D7 : f0;
 9D8 : 43;
 9D9 : 40;
 9DA : 40;
 9DB : 58;
 9DC : 90;
 9DD : f0;
 9DE : e0;
 9DF : 70;
 9E0 : f0;
 9E1 : f8;
 9E2 : f0;
 9E3 : ec;
 9E4 : 9d;
 9E5 : 3f;
 9E6 : 3f;
 9E7 : 3f;
 9E8 : 30;
 9E9 : 38;
 9EA : 18;
 9EB : 1c;
 9EC : 64;
 9ED : c4;
 9EE : c1;
 9EF : c1;
 9F0 : 3f;
 9F1 : 1f;
 9F2 : 0e;
 9F3 : 06;
 9F4 : c0;
 9F5 : c0;
 9F6 : 80;
 9F7 : 00;
 9F8 : c3;
 9F9 : e3;
 9FA : 82;
 9FB : 02;
 9FC : c0;
 9FD : 40;
 9FE : 00;
 9FF : 00;
 A00 : 00;
 A01 : 1d;
 A02 : 0f;
 A03 : 3f;
 A04 : 10;
 A05 : 34;
 A06 : 31;
 A07 : 1f;
 A08 : 00;
 A09 : 00;
 A0A : 00;
 A0B : 00;
 A0C : 0f;
 A0D : 0b;
 A0E : ce;
 A0F : e0;
 A10 : 1f;
 A11 : 3f;
 A12 : 3f;
 A13 : 3f;
 A14 : 1f;
 A15 : 1f;
 A16 : 2b;
 A17 : 7e;
 A18 : 60;
 A19 : 00;
 A1A : 03;
 A1B : 07;
 A1C : 06;
 A1D : 00;
 A1E : 34;
 A1F : 7e;
 A20 : 00;
 A21 : c0;
 A22 : f0;
 A23 : f8;
 A24 : dc;
 A25 : e8;
 A26 : fc;
 A27 : fa;
 A28 : 00;
 A29 : 00;
 A2A : 00;
 A2B : 00;
 A2C : 20;
 A2D : 10;
 A2E : 00;
 A2F : 04;
 A30 : fe;
 A31 : f4;
 A32 : fa;
 A33 : ff;
 A34 : ed;
 A35 : fb;
 A36 : 5e;
 A37 : 0c;
 A38 : 60;
 A39 : e8;
 A3A : e4;
 A3B : c1;
 A3C : 13;
 A3D : 07;
 A3E : 0e;
 A3F : 0c;
 A40 : 0e;
 A41 : 07;
 A42 : 1f;
 A43 : 08;
 A44 : 1a;
 A45 : 18;
 A46 : 0f;
 A47 : 0f;
 A48 : 00;
 A49 : 00;
 A4A : 00;
 A4B : 07;
 A4C : 05;
 A4D : 67;
 A4E : 70;
 A4F : 30;
 A50 : 1f;
 A51 : 1f;
 A52 : 1f;
 A53 : 0f;
 A54 : 0f;
 A55 : 05;
 A56 : 0e;
 A57 : 01;
 A58 : 00;
 A59 : 00;
 A5A : 00;
 A5B : 00;
 A5C : 00;
 A5D : 02;
 A5E : 0e;
 A5F : 01;
 A60 : e0;
 A61 : f8;
 A62 : fc;
 A63 : 6e;
 A64 : 74;
 A65 : fe;
 A66 : fd;
 A67 : ff;
 A68 : 00;
 A69 : 00;
 A6A : 00;
 A6B : 90;
 A6C : 88;
 A6D : 00;
 A6E : 02;
 A6F : 30;
 A70 : fa;
 A71 : fd;
 A72 : ff;
 A73 : f6;
 A74 : fc;
 A75 : b8;
 A76 : c0;
 A77 : f0;
 A78 : 3c;
 A79 : 1a;
 A7A : 38;
 A7B : 38;
 A7C : 00;
 A7D : 40;
 A7E : f0;
 A7F : f0;
 A80 : 0e;
 A81 : 07;
 A82 : 1f;
 A83 : 08;
 A84 : 1a;
 A85 : 18;
 A86 : 0f;
 A87 : 0f;
 A88 : 00;
 A89 : 00;
 A8A : 00;
 A8B : 07;
 A8C : 05;
 A8D : 67;
 A8E : 70;
 A8F : 30;
 A90 : 1f;
 A91 : 1f;
 A92 : 1f;
 A93 : 6f;
 A94 : 2f;
 A95 : 35;
 A96 : 18;
 A97 : 00;
 A98 : 00;
 A99 : 00;
 A9A : 00;
 A9B : 70;
 A9C : 30;
 A9D : 38;
 A9E : 18;
 A9F : 00;
 AA0 : e0;
 AA1 : f8;
 AA2 : fc;
 AA3 : 6e;
 AA4 : 74;
 AA5 : fe;
 AA6 : fd;
 AA7 : ff;
 AA8 : 00;
 AA9 : 00;
 AAA : 00;
 AAB : 90;
 AAC : 88;
 AAD : 00;
 AAE : 02;
 AAF : 30;
 AB0 : fe;
 AB1 : ff;
 AB2 : ff;
 AB3 : f6;
 AB4 : fc;
 AB5 : b2;
 AB6 : 1e;
 AB7 : 3c;
 AB8 : 3c;
 AB9 : 1e;
 ABA : 06;
 ABB : 0e;
 ABC : 00;
 ABD : 0e;
 ABE : 1e;
 ABF : 3c;
 AC0 : 00;
 AC1 : 00;
 AC2 : 00;
 AC3 : 00;
 AC4 : 00;
 AC5 : 00;
 AC6 : 10;
 AC7 : 20;
 AC8 : 00;
 AC9 : 00;
 ACA : 00;
 ACB : 00;
 ACC : 00;
 ACD : 00;
 ACE : 00;
 ACF : 18;
 AD0 : 30;
 AD1 : 38;
 AD2 : 58;
 AD3 : 58;
 AD4 : dc;
 AD5 : dc;
 AD6 : 9c;
 AD7 : be;
 AD8 : 08;
 AD9 : 04;
 ADA : 26;
 ADB : 26;
 ADC : 32;
 ADD : 32;
 ADE : 6b;
 ADF : 41;
 AE0 : 00;
 AE1 : 00;
 AE2 : 3d;
 AE3 : 7c;
 AE4 : 78;
 AE5 : f3;
 AE6 : e2;
 AE7 : 60;
 AE8 : 00;
 AE9 : 00;
 AEA : 3d;
 AEB : 7f;
 AEC : 7f;
 AED : fc;
 AEE : fc;
 AEF : 7f;
 AF0 : 27;
 AF1 : 2f;
 AF2 : 16;
 AF3 : 00;
 AF4 : 00;
 AF5 : 00;
 AF6 : 00;
 AF7 : 00;
 AF8 : 7f;
 AF9 : 7f;
 AFA : 7f;
 AFB : 3f;
 AFC : 1f;
 AFD : 1f;
 AFE : 0f;
 AFF : 03;
 B00 : 00;
 B01 : 70;
 B02 : f8;
 B03 : 1c;
 B04 : 04;
 B05 : 61;
 B06 : 23;
 B07 : 06;
 B08 : 00;
 B09 : 70;
 B0A : f8;
 B0B : fc;
 B0C : fc;
 B0D : 9d;
 B0E : 9f;
 B0F : ff;
 B10 : cc;
 B11 : e8;
 B12 : 70;
 B13 : 10;
 B14 : 08;
 B15 : 00;
 B16 : 00;
 B17 : 00;
 B18 : fe;
 B19 : fe;
 B1A : fe;
 B1B : fe;
 B1C : fc;
 B1D : fc;
 B1E : f8;
 B1F : e0;
 B20 : 00;
 B21 : 00;
 B22 : 01;
 B23 : 33;
 B24 : 73;
 B25 : 0a;
 B26 : 02;
 B27 : 47;
 B28 : 00;
 B29 : 38;
 B2A : 7d;
 B2B : 4f;
 B2C : 0f;
 B2D : 06;
 B2E : 0e;
 B2F : 59;
 B30 : 6f;
 B31 : 6f;
 B32 : 2f;
 B33 : 1f;
 B34 : 0f;
 B35 : 07;
 B36 : 03;
 B37 : 03;
 B38 : 71;
 B39 : 70;
 B3A : 30;
 B3B : 00;
 B3C : 10;
 B3D : 08;
 B3E : 35;
 B3F : 13;
 B40 : 00;
 B41 : 70;
 B42 : d0;
 B43 : f0;
 B44 : ec;
 B45 : fc;
 B46 : 34;
 B47 : 3c;
 B48 : 00;
 B49 : 00;
 B4A : 00;
 B4B : 08;
 B4C : 90;
 B4D : e0;
 B4E : 20;
 B4F : 20;
 B50 : 30;
 B51 : 98;
 B52 : f0;
 B53 : 80;
 B54 : b8;
 B55 : 08;
 B56 : 08;
 B57 : c8;
 B58 : 38;
 B59 : 98;
 B5A : 7c;
 B5B : 7e;
 B5C : 46;
 B5D : c6;
 B5E : 86;
 B5F : c4;
 B60 : 01;
 B61 : 03;
 B62 : 07;
 B63 : 07;
 B64 : 07;
 B65 : 07;
 B66 : 05;
 B67 : 07;
 B68 : 01;
 B69 : 03;
 B6A : 07;
 B6B : 07;
 B6C : 05;
 B6D : 05;
 B6E : 05;
 B6F : 07;
 B70 : 06;
 B71 : 0f;
 B72 : 1b;
 B73 : 3f;
 B74 : 55;
 B75 : 7f;
 B76 : 6e;
 B77 : 3c;
 B78 : 07;
 B79 : 0f;
 B7A : 1f;
 B7B : 3f;
 B7C : 7f;
 B7D : 7f;
 B7E : 7e;
 B7F : 3c;
 B80 : 80;
 B81 : c0;
 B82 : e0;
 B83 : e0;
 B84 : e0;
 B85 : e0;
 B86 : 60;
 B87 : e0;
 B88 : 80;
 B89 : c0;
 B8A : e0;
 B8B : e0;
 B8C : 60;
 B8D : 60;
 B8E : 60;
 B8F : e0;
 B90 : c0;
 B91 : c0;
 B92 : 40;
 B93 : 80;
 B94 : 80;
 B95 : 00;
 B96 : 00;
 B97 : 00;
 B98 : c0;
 B99 : c0;
 B9A : c0;
 B9B : 80;
 B9C : 80;
 B9D : 00;
 B9E : 00;
 B9F : 00;
 BA0 : 00;
 BA1 : 00;
 BA2 : 00;
 BA3 : 00;
 BA4 : 01;
 BA5 : 00;
 BA6 : 01;
 BA7 : 00;
 BA8 : 01;
 BA9 : 03;
 BAA : 07;
 BAB : 07;
 BAC : 0f;
 BAD : 0f;
 BAE : 0f;
 BAF : 0f;
 BB0 : 01;
 BB1 : 11;
 BB2 : 3b;
 BB3 : 5f;
 BB4 : 0f;
 BB5 : 0f;
 BB6 : 07;
 BB7 : 01;
 BB8 : 0f;
 BB9 : 0e;
 BBA : 0e;
 BBB : 04;
 BBC : 00;
 BBD : 00;
 BBE : 00;
 BBF : 00;
 BC0 : 00;
 BC1 : 00;
 BC2 : 40;
 BC3 : 00;
 BC4 : 40;
 BC5 : 00;
 BC6 : 60;
 BC7 : 00;
 BC8 : 80;
 BC9 : c0;
 BCA : e0;
 BCB : e0;
 BCC : f0;
 BCD : f0;
 BCE : f0;
 BCF : f0;
 BD0 : 60;
 BD1 : 88;
 BD2 : dc;
 BD3 : fa;
 BD4 : f0;
 BD5 : f0;
 BD6 : e0;
 BD7 : 80;
 BD8 : f0;
 BD9 : 70;
 BDA : 30;
 BDB : 20;
 BDC : 00;
 BDD : 00;
 BDE : 00;
 BDF : 00;
 BE0 : 00;
 BE1 : 00;
 BE2 : 00;
 BE3 : 02;
 BE4 : 06;
 BE5 : 16;
 BE6 : 06;
 BE7 : 00;
 BE8 : 03;
 BE9 : 07;
 BEA : 1f;
 BEB : 3d;
 BEC : 39;
 BED : 7b;
 BEE : 7b;
 BEF : 7f;
 BF0 : 00;
 BF1 : 10;
 BF2 : 01;
 BF3 : 00;
 BF4 : 08;
 BF5 : 00;
 BF6 : 00;
 BF7 : 00;
 BF8 : 7f;
 BF9 : 7f;
 BFA : 3f;
 BFB : 3f;
 BFC : 3f;
 BFD : 3f;
 BFE : 1f;
 BFF : 07;
 C00 : 00;
 C01 : 00;
 C02 : 00;
 C03 : 80;
 C04 : c0;
 C05 : c0;
 C06 : d0;
 C07 : 00;
 C08 : c0;
 C09 : e0;
 C0A : f0;
 C0B : 78;
 C0C : 38;
 C0D : bc;
 C0E : bc;
 C0F : fc;
 C10 : 00;
 C11 : 08;
 C12 : 00;
 C13 : 20;
 C14 : 00;
 C15 : 80;
 C16 : 00;
 C17 : 00;
 C18 : fc;
 C19 : fc;
 C1A : fc;
 C1B : f8;
 C1C : f8;
 C1D : f0;
 C1E : e0;
 C1F : c0;
 C20 : 06;
 C21 : 07;
 C22 : 03;
 C23 : 01;
 C24 : 01;
 C25 : 01;
 C26 : 03;
 C27 : 03;
 C28 : 06;
 C29 : 07;
 C2A : 03;
 C2B : 01;
 C2C : 01;
 C2D : 01;
 C2E : 03;
 C2F : 03;
 C30 : 0f;
 C31 : 1f;
 C32 : 1d;
 C33 : 1d;
 C34 : 1f;
 C35 : 0e;
 C36 : 07;
 C37 : 01;
 C38 : 00;
 C39 : 00;
 C3A : 00;
 C3B : 00;
 C3C : 00;
 C3D : 00;
 C3E : 00;
 C3F : 00;
 C40 : 20;
 C41 : 60;
 C42 : 60;
 C43 : 40;
 C44 : d8;
 C45 : b8;
 C46 : e0;
 C47 : 80;
 C48 : 20;
 C49 : 60;
 C4A : 60;
 C4B : 40;
 C4C : d8;
 C4D : b8;
 C4E : e0;
 C4F : 80;
 C50 : e0;
 C51 : f0;
 C52 : 70;
 C53 : 70;
 C54 : f0;
 C55 : e0;
 C56 : c0;
 C57 : 00;
 C58 : 00;
 C59 : 00;
 C5A : 00;
 C5B : 00;
 C5C : 00;
 C5D : 00;
 C5E : 00;
 C5F : 00;
 C60 : 00;
 C61 : 00;
 C62 : 13;
 C63 : 26;
 C64 : 6c;
 C65 : 4c;
 C66 : 48;
 C67 : 48;
 C68 : 00;
 C69 : 01;
 C6A : 1b;
 C6B : 3f;
 C6C : 7f;
 C6D : 7d;
 C6E : 79;
 C6F : 79;
 C70 : 4c;
 C71 : 4c;
 C72 : 44;
 C73 : 44;
 C74 : 20;
 C75 : 24;
 C76 : 16;
 C77 : 1a;
 C78 : 7f;
 C79 : 7f;
 C7A : 7f;
 C7B : 7c;
 C7C : 30;
 C7D : 3f;
 C7E : 1f;
 C7F : 1b;
 C80 : 00;
 C81 : 00;
 C82 : 98;
 C83 : 10;
 C84 : 08;
 C85 : 08;
 C86 : 08;
 C87 : 08;
 C88 : 80;
 C89 : 80;
 C8A : dc;
 C8B : fe;
 C8C : fe;
 C8D : be;
 C8E : 9e;
 C8F : 9e;
 C90 : 08;
 C91 : 08;
 C92 : 10;
 C93 : 10;
 C94 : 00;
 C95 : 10;
 C96 : 10;
 C97 : 00;
 C98 : fe;
 C99 : fc;
 C9A : fc;
 C9B : 3c;
 C9C : 0c;
 C9D : f8;
 C9E : f8;
 C9F : d0;
 CA0 : 05;
 CA1 : 0f;
 CA2 : 17;
 CA3 : 3f;
 CA4 : 1f;
 CA5 : 1f;
 CA6 : 1f;
 CA7 : 0f;
 CA8 : 05;
 CA9 : 0f;
 CAA : 17;
 CAB : 3e;
 CAC : 1e;
 CAD : 1a;
 CAE : 1c;
 CAF : 0e;
 CB0 : 0f;
 CB1 : 0f;
 CB2 : 1f;
 CB3 : 1d;
 CB4 : 19;
 CB5 : 1f;
 CB6 : 1e;
 CB7 : 0f;
 CB8 : 0c;
 CB9 : 04;
 CBA : 00;
 CBB : 00;
 CBC : 00;
 CBD : 00;
 CBE : 00;
 CBF : 00;
 CC0 : 20;
 CC1 : b0;
 CC2 : f8;
 CC3 : f8;
 CC4 : f0;
 CC5 : e8;
 CC6 : f0;
 CC7 : e0;
 CC8 : 20;
 CC9 : b0;
 CCA : f8;
 CCB : f8;
 CCC : b0;
 CCD : 68;
 CCE : f0;
 CCF : 60;
 CD0 : e0;
 CD1 : e0;
 CD2 : f0;
 CD3 : 70;
 CD4 : 30;
 CD5 : f0;
 CD6 : f0;
 CD7 : e0;
 CD8 : 40;
 CD9 : 00;
 CDA : 00;
 CDB : 00;
 CDC : 00;
 CDD : 00;
 CDE : 00;
 CDF : 00;
 CE0 : 11;
 CE1 : 0d;
 CE2 : 0b;
 CE3 : 1b;
 CE4 : 1d;
 CE5 : 3f;
 CE6 : 1f;
 CE7 : 00;
 CE8 : 00;
 CE9 : 0c;
 CEA : 0a;
 CEB : 1a;
 CEC : 1e;
 CED : 00;
 CEE : 00;
 CEF : 1f;
 CF0 : 10;
 CF1 : 00;
 CF2 : 2c;
 CF3 : 0c;
 CF4 : 00;
 CF5 : 00;
 CF6 : 0e;
 CF7 : 1e;
 CF8 : 0f;
 CF9 : 1d;
 CFA : 1f;
 CFB : 3f;
 CFC : 7c;
 CFD : 0f;
 CFE : 00;
 CFF : 00;
 D00 : 00;
 D01 : 00;
 D02 : 00;
 D03 : 00;
 D04 : 00;
 D05 : 00;
 D06 : 00;
 D07 : 00;
 D08 : 00;
 D09 : 00;
 D0A : 00;
 D0B : 00;
 D0C : 00;
 D0D : 00;
 D0E : 00;
 D0F : 00;
 D10 : 80;
 D11 : 80;
 D12 : 80;
 D13 : 80;
 D14 : 80;
 D15 : 80;
 D16 : 00;
 D17 : 00;
 D18 : 70;
 D19 : 70;
 D1A : 70;
 D1B : 70;
 D1C : 70;
 D1D : 60;
 D1E : c0;
 D1F : e0;
 D20 : 00;
 D21 : 00;
 D22 : 00;
 D23 : 08;
 D24 : 0c;
 D25 : 04;
 D26 : 00;
 D27 : 00;
 D28 : e0;
 D29 : f0;
 D2A : b8;
 D2B : 70;
 D2C : f0;
 D2D : e0;
 D2E : 00;
 D2F : 00;
 D30 : 00;
 D31 : 00;
 D32 : 00;
 D33 : 00;
 D34 : 00;
 D35 : 00;
 D36 : 00;
 D37 : 00;
 D38 : 00;
 D39 : 00;
 D3A : 00;
 D3B : 00;
 D3C : 00;
 D3D : 00;
 D3E : 00;
 D3F : 00;
 D40 : 06;
 D41 : 05;
 D42 : 0d;
 D43 : 0e;
 D44 : 1f;
 D45 : 0f;
 D46 : 00;
 D47 : 08;
 D48 : 06;
 D49 : 05;
 D4A : 0d;
 D4B : 0f;
 D4C : 00;
 D4D : 00;
 D4E : 0f;
 D4F : 07;
 D50 : 10;
 D51 : 10;
 D52 : 00;
 D53 : 00;
 D54 : 00;
 D55 : 0e;
 D56 : 00;
 D57 : 01;
 D58 : 1f;
 D59 : 0b;
 D5A : 39;
 D5B : 3d;
 D5C : 1f;
 D5D : 01;
 D5E : 00;
 D5F : 00;
 D60 : 88;
 D61 : 5c;
 D62 : 3e;
 D63 : 7e;
 D64 : 7a;
 D65 : 54;
 D66 : 28;
 D67 : 10;
 D68 : 88;
 D69 : 5c;
 D6A : 3e;
 D6B : 7e;
 D6C : 7a;
 D6D : 54;
 D6E : 28;
 D6F : 10;
 D70 : c0;
 D71 : c0;
 D72 : c0;
 D73 : c0;
 D74 : c0;
 D75 : 80;
 D76 : 00;
 D77 : 00;
 D78 : 38;
 D79 : 38;
 D7A : 38;
 D7B : 38;
 D7C : 30;
 D7D : 60;
 D7E : f0;
 D7F : b0;
 D80 : 00;
 D81 : 00;
 D82 : c0;
 D83 : c0;
 D84 : 00;
 D85 : 00;
 D86 : e0;
 D87 : e0;
 D88 : b8;
 D89 : 78;
 D8A : e8;
 D8B : d8;
 D8C : fc;
 D8D : f0;
 D8E : 00;
 D8F : 00;
 D90 : 14;
 D91 : 15;
 D92 : 05;
 D93 : 07;
 D94 : 07;
 D95 : 03;
 D96 : 0c;
 D97 : 1d;
 D98 : 0c;
 D99 : 0d;
 D9A : 3d;
 D9B : 3f;
 D9C : 1f;
 D9D : 0f;
 D9E : 00;
 D9F : 00;
 DA0 : 06;
 DA1 : 05;
 DA2 : 0d;
 DA3 : 0e;
 DA4 : 1f;
 DA5 : 6f;
 DA6 : 60;
 DA7 : 08;
 DA8 : 06;
 DA9 : 05;
 DAA : 0d;
 DAB : 0f;
 DAC : 00;
 DAD : 60;
 DAE : 7f;
 DAF : 37;
 DB0 : 00;
 DB1 : 10;
 DB2 : 00;
 DB3 : 70;
 DB4 : 38;
 DB5 : 18;
 DB6 : 00;
 DB7 : 00;
 DB8 : 3f;
 DB9 : 0e;
 DBA : 3e;
 DBB : 0f;
 DBC : 07;
 DBD : 01;
 DBE : 00;
 DBF : 00;
 DC0 : 0c;
 DC1 : 1e;
 DC2 : 3f;
 DC3 : 3e;
 DC4 : 1c;
 DC5 : 00;
 DC6 : 00;
 DC7 : 00;
 DC8 : 00;
 DC9 : 00;
 DCA : 00;
 DCB : 01;
 DCC : 23;
 DCD : 1f;
 DCE : 0e;
 DCF : 00;
 DD0 : c0;
 DD1 : c0;
 DD2 : c0;
 DD3 : c0;
 DD4 : c0;
 DD5 : 80;
 DD6 : 00;
 DD7 : 00;
 DD8 : 38;
 DD9 : 38;
 DDA : 38;
 DDB : 38;
 DDC : 30;
 DDD : 60;
 DDE : f8;
 DDF : fc;
 DE0 : 0c;
 DE1 : 0c;
 DE2 : 00;
 DE3 : 00;
 DE4 : 06;
 DE5 : 0e;
 DE6 : 06;
 DE7 : 0c;
 DE8 : dc;
 DE9 : ec;
 DEA : 7e;
 DEB : 3c;
 DEC : f8;
 DED : f0;
 DEE : 00;
 DEF : 00;
 DF0 : 00;
 DF1 : 20;
 DF2 : 30;
 DF3 : 00;
 DF4 : 00;
 DF5 : 00;
 DF6 : 0c;
 DF7 : 1d;
 DF8 : 1d;
 DF9 : 3d;
 DFA : 2c;
 DFB : 1e;
 DFC : 3e;
 DFD : 0f;
 DFE : 00;
 DFF : 00;
 E00 : 00;
 E01 : 00;
 E02 : f0;
 E03 : f8;
 E04 : 78;
 E05 : 18;
 E06 : 1c;
 E07 : 0c;
 E08 : 38;
 E09 : 7c;
 E0A : 0e;
 E0B : 06;
 E0C : 06;
 E0D : 06;
 E0E : 03;
 E0F : 83;
 E10 : 0c;
 E11 : 0c;
 E12 : 2e;
 E13 : 3e;
 E14 : 3f;
 E15 : 7f;
 E16 : 3f;
 E17 : 18;
 E18 : b3;
 E19 : 73;
 E1A : d1;
 E1B : 01;
 E1C : 00;
 E1D : 60;
 E1E : 30;
 E1F : 18;
 E20 : 00;
 E21 : 00;
 E22 : 00;
 E23 : 00;
 E24 : 00;
 E25 : 00;
 E26 : 10;
 E27 : 38;
 E28 : 00;
 E29 : 00;
 E2A : 00;
 E2B : 00;
 E2C : 00;
 E2D : e0;
 E2E : e0;
 E2F : c0;
 E30 : 28;
 E31 : 2c;
 E32 : 1e;
 E33 : 7e;
 E34 : 3f;
 E35 : 80;
 E36 : 80;
 E37 : 00;
 E38 : c0;
 E39 : c4;
 E3A : ee;
 E3B : fe;
 E3C : ff;
 E3D : 60;
 E3E : 00;
 E3F : 00;
 E40 : 00;
 E41 : 00;
 E42 : 00;
 E43 : 00;
 E44 : 00;
 E45 : 00;
 E46 : 00;
 E47 : 00;
 E48 : 00;
 E49 : 00;
 E4A : 00;
 E4B : 00;
 E4C : 00;
 E4D : 01;
 E4E : 83;
 E4F : bf;
 E50 : 00;
 E51 : 20;
 E52 : 31;
 E53 : 21;
 E54 : 61;
 E55 : 01;
 E56 : 00;
 E57 : 00;
 E58 : 7f;
 E59 : df;
 E5A : 0e;
 E5B : 1e;
 E5C : 7e;
 E5D : 3e;
 E5E : 7c;
 E5F : 38;
 E60 : 00;
 E61 : 00;
 E62 : 00;
 E63 : 00;
 E64 : 00;
 E65 : 10;
 E66 : 38;
 E67 : 28;
 E68 : 00;
 E69 : 00;
 E6A : 00;
 E6B : 00;
 E6C : e0;
 E6D : e0;
 E6E : c0;
 E6F : c0;
 E70 : 2c;
 E71 : 1e;
 E72 : 7e;
 E73 : 3f;
 E74 : 80;
 E75 : 80;
 E76 : 80;
 E77 : 00;
 E78 : c4;
 E79 : ee;
 E7A : fe;
 E7B : ff;
 E7C : 60;
 E7D : 00;
 E7E : 00;
 E7F : 00;
 E80 : 00;
 E81 : 80;
 E82 : 00;
 E83 : 04;
 E84 : 20;
 E85 : 00;
 E86 : 00;
 E87 : 00;
 E88 : 00;
 E89 : 00;
 E8A : 00;
 E8B : 00;
 E8C : 00;
 E8D : 00;
 E8E : 07;
 E8F : 0f;
 E90 : 00;
 E91 : 00;
 E92 : 0f;
 E93 : 3f;
 E94 : 3f;
 E95 : 00;
 E96 : 01;
 E97 : 01;
 E98 : 1f;
 E99 : 1f;
 E9A : 10;
 E9B : 00;
 E9C : 0f;
 E9D : 3f;
 E9E : 7f;
 E9F : 7f;
 EA0 : 01;
 EA1 : 04;
 EA2 : 04;
 EA3 : 08;
 EA4 : 00;
 EA5 : 00;
 EA6 : 1e;
 EA7 : 3e;
 EA8 : 31;
 EA9 : 0b;
 EAA : 1b;
 EAB : 17;
 EAC : 3f;
 EAD : 0e;
 EAE : 00;
 EAF : 00;
 EB0 : 00;
 EB1 : 10;
 EB2 : 00;
 EB3 : 00;
 EB4 : 00;
 EB5 : 04;
 EB6 : 00;
 EB7 : 00;
 EB8 : 00;
 EB9 : 00;
 EBA : 00;
 EBB : 00;
 EBC : 00;
 EBD : 00;
 EBE : c0;
 EBF : e0;
 EC0 : 00;
 EC1 : 00;
 EC2 : e0;
 EC3 : f8;
 EC4 : f8;
 EC5 : f0;
 EC6 : e0;
 EC7 : e0;
 EC8 : f0;
 EC9 : f0;
 ECA : 10;
 ECB : 00;
 ECC : c0;
 ECD : c0;
 ECE : f8;
 ECF : f8;
 ED0 : c0;
 ED1 : 40;
 ED2 : 4c;
 ED3 : 28;
 ED4 : 00;
 ED5 : 00;
 ED6 : f0;
 ED7 : f8;
 ED8 : ec;
 ED9 : ac;
 EDA : bc;
 EDB : d8;
 EDC : f8;
 EDD : e0;
 EDE : 00;
 EDF : 00;
 EE0 : 00;
 EE1 : 00;
 EE2 : 00;
 EE3 : 00;
 EE4 : 00;
 EE5 : 00;
 EE6 : 0f;
 EE7 : 1f;
 EE8 : 00;
 EE9 : 00;
 EEA : 00;
 EEB : 00;
 EEC : 00;
 EED : 0f;
 EEE : 10;
 EEF : 20;
 EF0 : 1d;
 EF1 : 3d;
 EF2 : 3f;
 EF3 : 3b;
 EF4 : 3c;
 EF5 : 3f;
 EF6 : 1f;
 EF7 : 0f;
 EF8 : 25;
 EF9 : 0d;
 EFA : 1f;
 EFB : 1b;
 EFC : 1c;
 EFD : 0f;
 EFE : 07;
 EFF : 30;
 F00 : 01;
 F01 : 04;
 F02 : 04;
 F03 : 68;
 F04 : 20;
 F05 : 00;
 F06 : 1e;
 F07 : 3e;
 F08 : 7e;
 F09 : 7b;
 F0A : 6b;
 F0B : 77;
 F0C : 3f;
 F0D : 0e;
 F0E : 00;
 F0F : 00;
 F10 : 00;
 F11 : 00;
 F12 : 00;
 F13 : 00;
 F14 : 00;
 F15 : 00;
 F16 : e0;
 F17 : f0;
 F18 : 00;
 F19 : 00;
 F1A : 00;
 F1B : 00;
 F1C : 00;
 F1D : e0;
 F1E : 10;
 F1F : 08;
 F20 : 70;
 F21 : 78;
 F22 : f8;
 F23 : b8;
 F24 : 78;
 F25 : f8;
 F26 : f0;
 F27 : e0;
 F28 : 48;
 F29 : 60;
 F2A : f0;
 F2B : b0;
 F2C : 70;
 F2D : e0;
 F2E : c0;
 F2F : 18;
 F30 : 00;
 F31 : 40;
 F32 : 40;
 F33 : 2c;
 F34 : 09;
 F35 : 03;
 F36 : f3;
 F37 : fa;
 F38 : fc;
 F39 : bc;
 F3A : ac;
 F3B : dc;
 F3C : fc;
 F3D : e4;
 F3E : 04;
 F3F : 04;
 F40 : 00;
 F41 : 01;
 F42 : 01;
 F43 : 01;
 F44 : 01;
 F45 : 01;
 F46 : 01;
 F47 : 00;
 F48 : 00;
 F49 : 02;
 F4A : 02;
 F4B : 02;
 F4C : 02;
 F4D : 02;
 F4E : 02;
 F4F : 02;
 F50 : 00;
 F51 : 0f;
 F52 : 1f;
 F53 : dd;
 F54 : fd;
 F55 : ff;
 F56 : 33;
 F57 : 30;
 F58 : 0f;
 F59 : 10;
 F5A : 20;
 F5B : e5;
 F5C : cd;
 F5D : df;
 F5E : d0;
 F5F : d0;
 F60 : 38;
 F61 : 1f;
 F62 : 6f;
 F63 : e1;
 F64 : e4;
 F65 : e8;
 F66 : e0;
 F67 : 40;
 F68 : 48;
 F69 : 27;
 F6A : 10;
 F6B : 1e;
 F6C : 1b;
 F6D : 17;
 F6E : 1f;
 F6F : 37;
 F70 : 00;
 F71 : c0;
 F72 : f8;
 F73 : f8;
 F74 : f8;
 F75 : f8;
 F76 : f8;
 F77 : 78;
 F78 : 00;
 F79 : 00;
 F7A : 00;
 F7B : 00;
 F7C : 00;
 F7D : 00;
 F7E : 00;
 F7F : 00;
 F80 : 00;
 F81 : e0;
 F82 : f0;
 F83 : 73;
 F84 : 7b;
 F85 : fb;
 F86 : 98;
 F87 : 18;
 F88 : e2;
 F89 : 12;
 F8A : 0a;
 F8B : 4b;
 F8C : 63;
 F8D : f3;
 F8E : 17;
 F8F : 16;
 F90 : 38;
 F91 : f0;
 F92 : ec;
 F93 : 0e;
 F94 : 4e;
 F95 : 2e;
 F96 : 0e;
 F97 : 04;
 F98 : 24;
 F99 : c8;
 F9A : 10;
 F9B : f0;
 F9C : b0;
 F9D : d0;
 F9E : f0;
 F9F : d8;
 FA0 : 07;
 FA1 : 0f;
 FA2 : 1f;
 FA3 : 1f;
 FA4 : 3d;
 FA5 : 3f;
 FA6 : 3f;
 FA7 : 1f;
 FA8 : 07;
 FA9 : 0f;
 FAA : 1d;
 FAB : 1d;
 FAC : 3d;
 FAD : 3f;
 FAE : 3f;
 FAF : 1f;
 FB0 : 00;
 FB1 : 00;
 FB2 : 00;
 FB3 : 00;
 FB4 : 00;
 FB5 : 01;
 FB6 : 02;
 FB7 : 00;
 FB8 : 03;
 FB9 : 07;
 FBA : 07;
 FBB : 0f;
 FBC : 1f;
 FBD : 1e;
 FBE : 1d;
 FBF : 0f;
 FC0 : e0;
 FC1 : f0;
 FC2 : f8;
 FC3 : f8;
 FC4 : 7c;
 FC5 : fc;
 FC6 : fc;
 FC7 : f8;
 FC8 : e0;
 FC9 : f0;
 FCA : 78;
 FCB : 78;
 FCC : 7c;
 FCD : fc;
 FCE : fc;
 FCF : f8;
 FD0 : 00;
 FD1 : 00;
 FD2 : 00;
 FD3 : 80;
 FD4 : 80;
 FD5 : 00;
 FD6 : 00;
 FD7 : 00;
 FD8 : c0;
 FD9 : c0;
 FDA : c0;
 FDB : 40;
 FDC : 40;
 FDD : 80;
 FDE : 80;
 FDF : 00;
 FE0 : 60;
 FE1 : f0;
 FE2 : f8;
 FE3 : f0;
 FE4 : e0;
 FE5 : 00;
 FE6 : 00;
 FE7 : 00;
 FE8 : 00;
 FE9 : 00;
 FEA : 00;
 FEB : 08;
 FEC : 18;
 FED : f0;
 FEE : e0;
 FEF : 00;
 FF0 : 7c;
 FF1 : fe;
 FF2 : ff;
 FF3 : fd;
 FF4 : fc;
 FF5 : 78;
 FF6 : 00;
 FF7 : 00;
 FF8 : 00;
 FF9 : 00;
 FFA : 00;
 FFB : 02;
 FFC : 03;
 FFD : 87;
 FFE : fe;
 FFF : 7c;
1000 : 38;
1001 : 4c;
1002 : c6;
1003 : c6;
1004 : c6;
1005 : 64;
1006 : 38;
1007 : 00;
1008 : 00;
1009 : 00;
100A : 00;
100B : 00;
100C : 00;
100D : 00;
100E : 00;
100F : 00;
1010 : 18;
1011 : 38;
1012 : 18;
1013 : 18;
1014 : 18;
1015 : 18;
1016 : 7e;
1017 : 00;
1018 : 00;
1019 : 00;
101A : 00;
101B : 00;
101C : 00;
101D : 00;
101E : 00;
101F : 00;
1020 : 7c;
1021 : c6;
1022 : 0e;
1023 : 3c;
1024 : 78;
1025 : e0;
1026 : fe;
1027 : 00;
1028 : 00;
1029 : 00;
102A : 00;
102B : 00;
102C : 00;
102D : 00;
102E : 00;
102F : 00;
1030 : 7e;
1031 : 0c;
1032 : 18;
1033 : 3c;
1034 : 06;
1035 : c6;
1036 : 7c;
1037 : 00;
1038 : 00;
1039 : 00;
103A : 00;
103B : 00;
103C : 00;
103D : 00;
103E : 00;
103F : 00;
1040 : 1c;
1041 : 3c;
1042 : 6c;
1043 : cc;
1044 : fe;
1045 : 0c;
1046 : 0c;
1047 : 00;
1048 : 00;
1049 : 00;
104A : 00;
104B : 00;
104C : 00;
104D : 00;
104E : 00;
104F : 00;
1050 : fc;
1051 : c0;
1052 : fc;
1053 : 06;
1054 : 06;
1055 : c6;
1056 : 7c;
1057 : 00;
1058 : 00;
1059 : 00;
105A : 00;
105B : 00;
105C : 00;
105D : 00;
105E : 00;
105F : 00;
1060 : 3c;
1061 : 60;
1062 : c0;
1063 : fc;
1064 : c6;
1065 : c6;
1066 : 7c;
1067 : 00;
1068 : 00;
1069 : 00;
106A : 00;
106B : 00;
106C : 00;
106D : 00;
106E : 00;
106F : 00;
1070 : fe;
1071 : c6;
1072 : 0c;
1073 : 18;
1074 : 30;
1075 : 30;
1076 : 30;
1077 : 00;
1078 : 00;
1079 : 00;
107A : 00;
107B : 00;
107C : 00;
107D : 00;
107E : 00;
107F : 00;
1080 : 7c;
1081 : c6;
1082 : c6;
1083 : 7c;
1084 : c6;
1085 : c6;
1086 : 7c;
1087 : 00;
1088 : 00;
1089 : 00;
108A : 00;
108B : 00;
108C : 00;
108D : 00;
108E : 00;
108F : 00;
1090 : 7c;
1091 : c6;
1092 : c6;
1093 : 7e;
1094 : 06;
1095 : 0c;
1096 : 78;
1097 : 00;
1098 : 00;
1099 : 00;
109A : 00;
109B : 00;
109C : 00;
109D : 00;
109E : 00;
109F : 00;
10A0 : 23;
10A1 : e0;
10A2 : 60;
10A3 : aa;
10A4 : 23;
10A5 : e8;
10A6 : 48;
10A7 : 50;
10A8 : 23;
10A9 : f0;
10AA : 48;
10AB : af;
10AC : 20;
10AD : 62;
10AE : 01;
10AF : 77;
10B0 : 20;
10B1 : 63;
10B2 : 5a;
10B3 : 7a;
10B4 : 20;
10B5 : 7d;
10B6 : 01;
10B7 : 7c;
10B8 : 20;
10B9 : 82;
10BA : c9;
10BB : 78;
10BC : 21;
10BD : a2;
10BE : 01;
10BF : 79;
10C0 : 21;
10C1 : a3;
10C2 : 5a;
10C3 : 7b;
10C4 : 20;
10C5 : 9d;
10C6 : c9;
10C7 : 7d;
10C8 : 21;
10C9 : bd;
10CA : 01;
10CB : 7e;
10CC : 20;
10CD : 83;
10CE : 5a;
10CF : fd;
10D0 : 20;
10D1 : a3;
10D2 : 5a;
10D3 : fd;
10D4 : 20;
10D5 : c3;
10D6 : 5a;
10D7 : fd;
10D8 : 20;
10D9 : e3;
10DA : 5a;
10DB : fd;
10DC : 21;
10DD : 03;
10DE : 5a;
10DF : fd;
10E0 : 20;
10E1 : 8b;
10E2 : 0a;
10E3 : 5e;
10E4 : fd;
10E5 : fd;
10E6 : 60;
10E7 : 61;
10E8 : 61;
10E9 : fd;
10EA : 60;
10EB : 61;
10EC : 61;
10ED : 20;
10EE : ab;
10EF : 0a;
10F0 : 5f;
10F1 : fd;
10F2 : fd;
10F3 : 5f;
10F4 : 62;
10F5 : fd;
10F6 : fd;
10F7 : 5f;
10F8 : 66;
10F9 : 68;
10FA : 20;
10FB : cb;
10FC : 0a;
10FD : 5f;
10FE : fd;
10FF : fd;
1100 : 5f;
1101 : 63;
1102 : fd;
1103 : fd;
1104 : 5f;
1105 : 67;
1106 : 69;
1107 : 20;
1108 : eb;
1109 : 0a;
110A : 5f;
110B : fd;
110C : fd;
110D : 64;
110E : 65;
110F : 61;
1110 : fd;
1111 : 64;
1112 : 65;
1113 : 61;
1114 : 21;
1115 : 23;
1116 : 1a;
1117 : 60;
1118 : 61;
1119 : 61;
111A : fd;
111B : 5e;
111C : fd;
111D : fd;
111E : fd;
111F : 5e;
1120 : fd;
1121 : 60;
1122 : 6a;
1123 : 60;
1124 : 6a;
1125 : fd;
1126 : 60;
1127 : 61;
1128 : 6a;
1129 : fd;
112A : 60;
112B : 61;
112C : 61;
112D : fd;
112E : 60;
112F : 61;
1130 : 6a;
1131 : 21;
1132 : 43;
1133 : 1a;
1134 : 5f;
1135 : 62;
1136 : fd;
1137 : fd;
1138 : 5f;
1139 : fd;
113A : fd;
113B : fd;
113C : 5f;
113D : fd;
113E : 5f;
113F : 6b;
1140 : 6c;
1141 : 6d;
1142 : fd;
1143 : 5f;
1144 : 6e;
1145 : 71;
1146 : fd;
1147 : 5f;
1148 : 66;
1149 : 68;
114A : fd;
114B : 5f;
114C : 6e;
114D : 71;
114E : 21;
114F : 63;
1150 : 1a;
1151 : 5f;
1152 : 63;
1153 : fd;
1154 : fd;
1155 : 5f;
1156 : 63;
1157 : fd;
1158 : fd;
1159 : 5f;
115A : fd;
115B : 5f;
115C : 74;
115D : 75;
115E : 5f;
115F : fd;
1160 : 5f;
1161 : 6f;
1162 : 72;
1163 : fd;
1164 : 5f;
1165 : 67;
1166 : 69;
1167 : fd;
1168 : 5f;
1169 : 76;
116A : 72;
116B : 21;
116C : 83;
116D : 1a;
116E : 64;
116F : 65;
1170 : 61;
1171 : fd;
1172 : 64;
1173 : 65;
1174 : 61;
1175 : fd;
1176 : 5f;
1177 : fd;
1178 : 5f;
1179 : fd;
117A : fd;
117B : 5f;
117C : fd;
117D : 5f;
117E : 70;
117F : 73;
1180 : fd;
1181 : 64;
1182 : 65;
1183 : 61;
1184 : fd;
1185 : 5f;
1186 : fd;
1187 : 5f;
1188 : 22;
1189 : 0a;
118A : 0d;
118B : 01;
118C : 38;
118D : 8d;
118E : 37;
118F : 33;
1190 : a3;
1191 : 3d;
1192 : 8e;
1193 : 38;
1194 : 36;
1195 : 33;
1196 : 3c;
1197 : 3d;
1198 : 22;
1199 : 4a;
119A : 0d;
119B : 02;
119C : 38;
119D : 8d;
119E : 37;
119F : 33;
11A0 : a3;
11A1 : 3d;
11A2 : 8e;
11A3 : 38;
11A4 : 36;
11A5 : 33;
11A6 : 3c;
11A7 : 3d;
11A8 : 22;
11A9 : 8a;
11AA : 08;
11AB : 3c;
11AC : 5b;
11AD : 93;
11AE : 5a;
11AF : 3a;
11B0 : 33;
11B1 : 3b;
11B2 : 5a;
11B3 : 22;
11B4 : ca;
11B5 : 03;
11B6 : 7f;
11B7 : 80;
11B8 : 81;
11B9 : 22;
11BA : d2;
11BB : 05;
11BC : 00;
11BD : 3e;
11BE : 3f;
11BF : 40;
11C0 : 41;
11C1 : 23;
11C2 : 05;
11C3 : 01;
11C4 : 83;
11C5 : 23;
11C6 : 0b;
11C7 : 05;
11C8 : 00;
11C9 : 3e;
11CA : 3f;
11CB : 40;
11CC : 41;
11CD : 23;
11CE : 12;
11CF : 02;
11D0 : 82;
11D1 : 83;
11D2 : 23;
11D3 : 19;
11D4 : 05;
11D5 : 00;
11D6 : 3e;
11D7 : 3f;
11D8 : 40;
11D9 : 41;
11DA : 23;
11DB : 69;
11DC : 0e;
11DD : fc;
11DE : 01;
11DF : 09;
11E0 : 08;
11E1 : 04;
11E2 : 38;
11E3 : 5a;
11E4 : 3b;
11E5 : 5a;
11E6 : 3a;
11E7 : 3d;
11E8 : 5a;
11E9 : 35;
11EA : 5b;
11EB : 00;
11EC : 3f;
11ED : 00;
11EE : 14;
11EF : 0f;
11F0 : 31;
11F1 : 12;
11F2 : 30;
11F3 : 0f;
11F4 : 25;
11F5 : 29;
11F6 : 0a;
11F7 : 0f;
11F8 : 30;
11F9 : 21;
11FA : 01;
11FB : 0f;
11FC : 27;
11FD : 17;
11FE : 07;
11FF : 0f;
1200 : 30;
1201 : 12;
1202 : 26;
1203 : 00;
1204 : 23;
1205 : cc;
1206 : 44;
1207 : 55;
1208 : 23;
1209 : d4;
120A : 44;
120B : 55;
120C : 23;
120D : dc;
120E : 44;
120F : 55;
1210 : 23;
1211 : e4;
1212 : 44;
1213 : 55;
1214 : 23;
1215 : ec;
1216 : 44;
1217 : 55;
1218 : 23;
1219 : f4;
121A : 44;
121B : 55;
121C : 21;
121D : 08;
121E : 06;
121F : 5a;
1220 : 5b;
1221 : 38;
1222 : 38;
1223 : 38;
1224 : 38;
1225 : 21;
1226 : 28;
1227 : 06;
1228 : 34;
1229 : 5b;
122A : 5a;
122B : 93;
122C : 91;
122D : 39;
122E : 20;
122F : 6a;
1230 : 08;
1231 : 3c;
1232 : 5b;
1233 : 93;
1234 : 5a;
1235 : 3a;
1236 : 33;
1237 : 3b;
1238 : 5a;
1239 : 20;
123A : 82;
123B : 01;
123C : 95;
123D : 20;
123E : a2;
123F : d6;
1240 : 96;
1241 : 23;
1242 : 62;
1243 : 01;
1244 : 97;
1245 : 20;
1246 : 83;
1247 : 4c;
1248 : 98;
1249 : 23;
124A : 63;
124B : 4c;
124C : 99;
124D : 20;
124E : 8f;
124F : 01;
1250 : 9a;
1251 : 20;
1252 : af;
1253 : d6;
1254 : 9b;
1255 : 23;
1256 : 6f;
1257 : 01;
1258 : 9c;
1259 : 20;
125A : c5;
125B : 08;
125C : 01;
125D : 38;
125E : 8d;
125F : 37;
1260 : 33;
1261 : a3;
1262 : 3d;
1263 : 8e;
1264 : 22;
1265 : c6;
1266 : 05;
1267 : 3a;
1268 : 5b;
1269 : 3a;
126A : 33;
126B : 37;
126C : 22;
126D : e4;
126E : 83;
126F : 84;
1270 : 85;
1271 : 86;
1272 : 22;
1273 : e5;
1274 : 48;
1275 : 87;
1276 : 23;
1277 : 25;
1278 : 48;
1279 : 88;
127A : 22;
127B : ed;
127C : 83;
127D : 89;
127E : 8a;
127F : 8b;
1280 : 23;
1281 : 0b;
1282 : 01;
1283 : 00;
1284 : 00;
1285 : 21;
1286 : 16;
1287 : 06;
1288 : 5a;
1289 : 5b;
128A : 38;
128B : 38;
128C : 38;
128D : 38;
128E : 21;
128F : 36;
1290 : 06;
1291 : 34;
1292 : 5b;
1293 : 5a;
1294 : 93;
1295 : 91;
1296 : 39;
1297 : 20;
1298 : 90;
1299 : 01;
129A : 95;
129B : 20;
129C : b0;
129D : d6;
129E : 96;
129F : 23;
12A0 : 70;
12A1 : 01;
12A2 : 97;
12A3 : 20;
12A4 : 91;
12A5 : 4c;
12A6 : 98;
12A7 : 23;
12A8 : 71;
12A9 : 4c;
12AA : 99;
12AB : 20;
12AC : 9d;
12AD : 01;
12AE : 9a;
12AF : 20;
12B0 : bd;
12B1 : d6;
12B2 : 9b;
12B3 : 23;
12B4 : 7d;
12B5 : 01;
12B6 : 9c;
12B7 : 20;
12B8 : d3;
12B9 : 08;
12BA : 02;
12BB : 38;
12BC : 8d;
12BD : 37;
12BE : 33;
12BF : a3;
12C0 : 3d;
12C1 : 8e;
12C2 : 22;
12C3 : d4;
12C4 : 05;
12C5 : 3a;
12C6 : 5b;
12C7 : 3a;
12C8 : 33;
12C9 : 37;
12CA : 22;
12CB : f2;
12CC : 83;
12CD : 84;
12CE : 85;
12CF : 86;
12D0 : 22;
12D1 : f3;
12D2 : 48;
12D3 : 87;
12D4 : 23;
12D5 : 33;
12D6 : 48;
12D7 : 88;
12D8 : 22;
12D9 : fb;
12DA : 83;
12DB : 89;
12DC : 8a;
12DD : 8b;
12DE : 23;
12DF : 19;
12E0 : 01;
12E1 : 00;
12E2 : 00;
12E3 : 3f;
12E4 : 00;
12E5 : 08;
12E6 : 0f;
12E7 : 30;
12E8 : 21;
12E9 : 11;
12EA : 0f;
12EB : 30;
12EC : 25;
12ED : 15;
12EE : 3f;
12EF : 10;
12F0 : 0c;
12F1 : 0f;
12F2 : 30;
12F3 : 11;
12F4 : 26;
12F5 : 0f;
12F6 : 30;
12F7 : 15;
12F8 : 26;
12F9 : 0f;
12FA : 30;
12FB : 21;
12FC : 12;
12FD : 00;
12FE : ff;
12FF : ff;
1300 : ff;
1301 : ff;
1302 : ff;
1303 : ff;
1304 : ff;
1305 : ff;
1306 : ff;
1307 : ff;
1308 : ff;
1309 : ff;
130A : ff;
130B : ff;
130C : ff;
130D : ff;
130E : ff;
130F : ff;
1310 : ff;
1311 : 55;
1312 : aa;
1313 : 55;
1314 : 22;
1315 : 88;
1316 : 00;
1317 : 22;
1318 : 00;
1319 : aa;
131A : 55;
131B : aa;
131C : dd;
131D : 77;
131E : ff;
131F : dd;
1320 : 00;
1321 : 00;
1322 : 08;
1323 : 00;
1324 : 00;
1325 : 00;
1326 : 80;
1327 : 00;
1328 : ff;
1329 : ff;
132A : f7;
132B : ff;
132C : ff;
132D : ff;
132E : 7f;
132F : ff;
1330 : 38;
1331 : 6c;
1332 : c6;
1333 : c6;
1334 : fe;
1335 : c6;
1336 : c6;
1337 : 00;
1338 : 00;
1339 : 00;
133A : 00;
133B : 00;
133C : 00;
133D : 00;
133E : 00;
133F : 00;
1340 : fc;
1341 : c6;
1342 : c6;
1343 : fc;
1344 : c6;
1345 : c6;
1346 : fc;
1347 : 00;
1348 : 00;
1349 : 00;
134A : 00;
134B : 00;
134C : 00;
134D : 00;
134E : 00;
134F : 00;
1350 : f8;
1351 : cc;
1352 : c6;
1353 : c6;
1354 : c6;
1355 : cc;
1356 : f8;
1357 : 00;
1358 : 00;
1359 : 00;
135A : 00;
135B : 00;
135C : 00;
135D : 00;
135E : 00;
135F : 00;
1360 : 3e;
1361 : 60;
1362 : c0;
1363 : de;
1364 : c6;
1365 : 66;
1366 : 7e;
1367 : 00;
1368 : 00;
1369 : 00;
136A : 00;
136B : 00;
136C : 00;
136D : 00;
136E : 00;
136F : 00;
1370 : 60;
1371 : 60;
1372 : 60;
1373 : 60;
1374 : 60;
1375 : 60;
1376 : 7e;
1377 : 00;
1378 : 00;
1379 : 00;
137A : 00;
137B : 00;
137C : 00;
137D : 00;
137E : 00;
137F : 00;
1380 : 00;
1381 : 00;
1382 : 00;
1383 : 00;
1384 : 00;
1385 : 00;
1386 : 00;
1387 : 00;
1388 : 00;
1389 : 00;
138A : 00;
138B : 00;
138C : 00;
138D : 00;
138E : 00;
138F : 00;
1390 : 38;
1391 : 38;
1392 : 38;
1393 : 10;
1394 : 10;
1395 : 10;
1396 : 00;
1397 : 10;
1398 : 00;
1399 : 00;
139A : 00;
139B : 00;
139C : 00;
139D : 00;
139E : 00;
139F : 00;
13A0 : 7e;
13A1 : 18;
13A2 : 18;
13A3 : 18;
13A4 : 18;
13A5 : 18;
13A6 : 18;
13A7 : 00;
13A8 : 00;
13A9 : 00;
13AA : 00;
13AB : 00;
13AC : 00;
13AD : 00;
13AE : 00;
13AF : 00;
13B0 : 7e;
13B1 : 18;
13B2 : 18;
13B3 : 18;
13B4 : 18;
13B5 : 18;
13B6 : 7e;
13B7 : 00;
13B8 : 00;
13B9 : 00;
13BA : 00;
13BB : 00;
13BC : 00;
13BD : 00;
13BE : 00;
13BF : 00;
13C0 : c6;
13C1 : ee;
13C2 : fe;
13C3 : fe;
13C4 : d6;
13C5 : c6;
13C6 : c6;
13C7 : 00;
13C8 : 00;
13C9 : 00;
13CA : 00;
13CB : 00;
13CC : 00;
13CD : 00;
13CE : 00;
13CF : 00;
13D0 : fe;
13D1 : c0;
13D2 : c0;
13D3 : fc;
13D4 : c0;
13D5 : c0;
13D6 : fe;
13D7 : 00;
13D8 : 00;
13D9 : 00;
13DA : 00;
13DB : 00;
13DC : 00;
13DD : 00;
13DE : 00;
13DF : 00;
13E0 : 1f;
13E1 : 1f;
13E2 : 19;
13E3 : 1f;
13E4 : 1f;
13E5 : 18;
13E6 : 18;
13E7 : 00;
13E8 : 00;
13E9 : 00;
13EA : 00;
13EB : 00;
13EC : 00;
13ED : 00;
13EE : 00;
13EF : 00;
13F0 : 3f;
13F1 : bf;
13F2 : 8c;
13F3 : 8c;
13F4 : 0c;
13F5 : 0c;
13F6 : 0c;
13F7 : 00;
13F8 : 00;
13F9 : 00;
13FA : 00;
13FB : 00;
13FC : 00;
13FD : 00;
13FE : 00;
13FF : 00;
1400 : 3c;
1401 : 7c;
1402 : 70;
1403 : 3c;
1404 : 0e;
1405 : 7e;
1406 : 7c;
1407 : 00;
1408 : 00;
1409 : 00;
140A : 00;
140B : 00;
140C : 00;
140D : 00;
140E : 00;
140F : 00;
1410 : 00;
1411 : 00;
1412 : 00;
1413 : 00;
1414 : 00;
1415 : c0;
1416 : c0;
1417 : 00;
1418 : 00;
1419 : 00;
141A : 00;
141B : 00;
141C : 00;
141D : 00;
141E : 00;
141F : 00;
1420 : e7;
1421 : ff;
1422 : 7e;
1423 : 3c;
1424 : 3c;
1425 : 3c;
1426 : 3c;
1427 : 3c;
1428 : 00;
1429 : 0c;
142A : 8f;
142B : cf;
142C : cf;
142D : cf;
142E : cf;
142F : cf;
1430 : 3c;
1431 : 3c;
1432 : 3c;
1433 : 3c;
1434 : 3c;
1435 : 3c;
1436 : 3c;
1437 : 3c;
1438 : cf;
1439 : cf;
143A : cf;
143B : cf;
143C : cf;
143D : cf;
143E : cf;
143F : cf;
1440 : 7e;
1441 : ff;
1442 : e7;
1443 : c3;
1444 : c3;
1445 : c3;
1446 : c3;
1447 : c3;
1448 : 00;
1449 : c0;
144A : f8;
144B : fc;
144C : fc;
144D : fc;
144E : fc;
144F : fc;
1450 : c3;
1451 : c3;
1452 : c3;
1453 : c3;
1454 : c3;
1455 : c3;
1456 : c3;
1457 : c3;
1458 : fc;
1459 : fc;
145A : fc;
145B : fc;
145C : fc;
145D : fc;
145E : fc;
145F : fc;
1460 : c3;
1461 : c3;
1462 : c3;
1463 : c3;
1464 : c3;
1465 : c3;
1466 : c3;
1467 : c3;
1468 : fc;
1469 : fc;
146A : fc;
146B : fc;
146C : fc;
146D : fc;
146E : fc;
146F : fc;
1470 : 00;
1471 : 7e;
1472 : 7e;
1473 : 66;
1474 : 66;
1475 : 7a;
1476 : 7c;
1477 : 00;
1478 : ff;
1479 : c1;
147A : a3;
147B : 9f;
147C : 9f;
147D : bb;
147E : fd;
147F : ff;
1480 : e0;
1481 : f0;
1482 : 70;
1483 : 30;
1484 : 30;
1485 : 30;
1486 : 30;
1487 : 30;
1488 : 00;
1489 : 00;
148A : 80;
148B : c0;
148C : c0;
148D : c0;
148E : c0;
148F : c0;
1490 : 30;
1491 : 30;
1492 : 30;
1493 : 30;
1494 : 30;
1495 : 30;
1496 : 30;
1497 : 30;
1498 : c0;
1499 : c0;
149A : c0;
149B : c0;
149C : c0;
149D : c0;
149E : c0;
149F : c0;
14A0 : 7e;
14A1 : ff;
14A2 : e7;
14A3 : c3;
14A4 : c3;
14A5 : c3;
14A6 : c3;
14A7 : c3;
14A8 : 00;
14A9 : c0;
14AA : f8;
14AB : fc;
14AC : fc;
14AD : fc;
14AE : fc;
14AF : fc;
14B0 : c3;
14B1 : c3;
14B2 : c3;
14B3 : c3;
14B4 : c3;
14B5 : c3;
14B6 : c3;
14B7 : c3;
14B8 : fc;
14B9 : fc;
14BA : fc;
14BB : fc;
14BC : fc;
14BD : fc;
14BE : fc;
14BF : fc;
14C0 : c3;
14C1 : c3;
14C2 : c3;
14C3 : c3;
14C4 : c3;
14C5 : c3;
14C6 : c3;
14C7 : c3;
14C8 : fc;
14C9 : fc;
14CA : fc;
14CB : fc;
14CC : fc;
14CD : fc;
14CE : fc;
14CF : fc;
14D0 : 00;
14D1 : 00;
14D2 : 00;
14D3 : 00;
14D4 : 07;
14D5 : 0c;
14D6 : 08;
14D7 : 08;
14D8 : 00;
14D9 : 00;
14DA : 00;
14DB : 0f;
14DC : 18;
14DD : 10;
14DE : 10;
14DF : 10;
14E0 : 07;
14E1 : 0f;
14E2 : 0e;
14E3 : 0c;
14E4 : 0c;
14E5 : 0c;
14E6 : 0c;
14E7 : 0c;
14E8 : 00;
14E9 : 00;
14EA : 01;
14EB : 03;
14EC : 03;
14ED : 03;
14EE : 03;
14EF : 03;
14F0 : 0c;
14F1 : 0c;
14F2 : 0c;
14F3 : 0c;
14F4 : 0c;
14F5 : 0c;
14F6 : 0c;
14F7 : 0c;
14F8 : 03;
14F9 : 03;
14FA : 03;
14FB : 03;
14FC : 03;
14FD : 03;
14FE : 03;
14FF : 03;
1500 : 7e;
1501 : ff;
1502 : e7;
1503 : c3;
1504 : c3;
1505 : c3;
1506 : c3;
1507 : c3;
1508 : 00;
1509 : 03;
150A : 1f;
150B : 3f;
150C : 3f;
150D : 3f;
150E : 3f;
150F : 3f;
1510 : c3;
1511 : c3;
1512 : c3;
1513 : c3;
1514 : c3;
1515 : c3;
1516 : c3;
1517 : c3;
1518 : 3f;
1519 : 3f;
151A : 3f;
151B : 3f;
151C : 3f;
151D : 3f;
151E : 3f;
151F : 3f;
1520 : c3;
1521 : c3;
1522 : c3;
1523 : c3;
1524 : c3;
1525 : c3;
1526 : c3;
1527 : c3;
1528 : 3f;
1529 : 3f;
152A : 3f;
152B : 3f;
152C : 3f;
152D : 3f;
152E : 3f;
152F : 3f;
1530 : 00;
1531 : 00;
1532 : 00;
1533 : 00;
1534 : ff;
1535 : 00;
1536 : 00;
1537 : 00;
1538 : 00;
1539 : 00;
153A : 00;
153B : ff;
153C : 00;
153D : 00;
153E : 00;
153F : 00;
1540 : 0f;
1541 : 1f;
1542 : 19;
1543 : 11;
1544 : 11;
1545 : 13;
1546 : 1f;
1547 : 0f;
1548 : 00;
1549 : 00;
154A : 07;
154B : 0f;
154C : 0f;
154D : 0f;
154E : 1f;
154F : 0f;
1550 : 7f;
1551 : ff;
1552 : c3;
1553 : 81;
1554 : 81;
1555 : c3;
1556 : ff;
1557 : 7f;
1558 : 00;
1559 : 00;
155A : 3d;
155B : 7f;
155C : 7f;
155D : 7f;
155E : ff;
155F : 7f;
1560 : 60;
1561 : f0;
1562 : d0;
1563 : 90;
1564 : 90;
1565 : b0;
1566 : f0;
1567 : 60;
1568 : 00;
1569 : 00;
156A : 30;
156B : 70;
156C : 70;
156D : 70;
156E : f0;
156F : 60;
1570 : 0f;
1571 : 1f;
1572 : 18;
1573 : 10;
1574 : 10;
1575 : 18;
1576 : 1f;
1577 : 0f;
1578 : 00;
1579 : 00;
157A : 07;
157B : 0f;
157C : 0f;
157D : 0f;
157E : 1f;
157F : 0f;
1580 : ef;
1581 : ff;
1582 : 78;
1583 : 30;
1584 : 30;
1585 : 78;
1586 : ff;
1587 : ef;
1588 : 00;
1589 : 00;
158A : a7;
158B : ef;
158C : ef;
158D : ef;
158E : ff;
158F : ef;
1590 : e0;
1591 : f0;
1592 : 30;
1593 : 10;
1594 : 10;
1595 : 30;
1596 : f0;
1597 : e0;
1598 : 00;
1599 : 00;
159A : d0;
159B : f0;
159C : f0;
159D : f0;
159E : f0;
159F : e0;
15A0 : c6;
15A1 : e6;
15A2 : f6;
15A3 : fe;
15A4 : de;
15A5 : ce;
15A6 : c6;
15A7 : 00;
15A8 : 00;
15A9 : 00;
15AA : 00;
15AB : 00;
15AC : 00;
15AD : 00;
15AE : 00;
15AF : 00;
15B0 : 7c;
15B1 : c6;
15B2 : c6;
15B3 : c6;
15B4 : c6;
15B5 : c6;
15B6 : 7c;
15B7 : 00;
15B8 : 00;
15B9 : 00;
15BA : 00;
15BB : 00;
15BC : 00;
15BD : 00;
15BE : 00;
15BF : 00;
15C0 : 00;
15C1 : 42;
15C2 : 24;
15C3 : 18;
15C4 : 18;
15C5 : 24;
15C6 : 42;
15C7 : 00;
15C8 : 00;
15C9 : 00;
15CA : 00;
15CB : 00;
15CC : 00;
15CD : 00;
15CE : 00;
15CF : 00;
15D0 : 00;
15D1 : 00;
15D2 : 00;
15D3 : 00;
15D4 : 00;
15D5 : 60;
15D6 : 60;
15D7 : 00;
15D8 : 00;
15D9 : 00;
15DA : 00;
15DB : 00;
15DC : 00;
15DD : 00;
15DE : 00;
15DF : 00;
15E0 : 00;
15E1 : 00;
15E2 : 00;
15E3 : 00;
15E4 : 00;
15E5 : 00;
15E6 : 00;
15E7 : 00;
15E8 : 00;
15E9 : 00;
15EA : 3f;
15EB : 3f;
15EC : 3f;
15ED : 3f;
15EE : 3f;
15EF : 3f;
15F0 : 00;
15F1 : 00;
15F2 : 00;
15F3 : 00;
15F4 : 00;
15F5 : 00;
15F6 : 00;
15F7 : 00;
15F8 : 3f;
15F9 : 3f;
15FA : 3f;
15FB : 3f;
15FC : 3f;
15FD : 3f;
15FE : 3f;
15FF : 3f;
1600 : fc;
1601 : f0;
1602 : e0;
1603 : c0;
1604 : c0;
1605 : 80;
1606 : 80;
1607 : 80;
1608 : 00;
1609 : 00;
160A : 01;
160B : 07;
160C : 0f;
160D : 0f;
160E : 1f;
160F : 1f;
1610 : 00;
1611 : 00;
1612 : 00;
1613 : 00;
1614 : 00;
1615 : 00;
1616 : 00;
1617 : 00;
1618 : 00;
1619 : 00;
161A : ff;
161B : ff;
161C : ff;
161D : ff;
161E : ff;
161F : ff;
1620 : 3f;
1621 : 7f;
1622 : ff;
1623 : ff;
1624 : ff;
1625 : ff;
1626 : ff;
1627 : ff;
1628 : c0;
1629 : 80;
162A : 00;
162B : 00;
162C : 00;
162D : 00;
162E : 00;
162F : 00;
1630 : ff;
1631 : ff;
1632 : ff;
1633 : ff;
1634 : ff;
1635 : ff;
1636 : 7f;
1637 : 3f;
1638 : 00;
1639 : 00;
163A : 00;
163B : 00;
163C : 00;
163D : 00;
163E : 00;
163F : 80;
1640 : 80;
1641 : 80;
1642 : 80;
1643 : c0;
1644 : c0;
1645 : e0;
1646 : f0;
1647 : fc;
1648 : 3f;
1649 : 3f;
164A : 3f;
164B : 1f;
164C : 1f;
164D : 1f;
164E : 0f;
164F : 03;
1650 : 00;
1651 : 00;
1652 : 00;
1653 : 00;
1654 : 00;
1655 : 00;
1656 : 00;
1657 : 00;
1658 : 80;
1659 : c0;
165A : ff;
165B : ff;
165C : ff;
165D : ff;
165E : ff;
165F : ff;
1660 : 3f;
1661 : 7f;
1662 : ff;
1663 : ff;
1664 : e0;
1665 : e0;
1666 : e0;
1667 : e0;
1668 : c0;
1669 : 80;
166A : 00;
166B : 00;
166C : 00;
166D : 00;
166E : 07;
166F : 07;
1670 : e0;
1671 : e0;
1672 : e0;
1673 : e0;
1674 : ff;
1675 : ff;
1676 : 7f;
1677 : 3f;
1678 : 07;
1679 : 07;
167A : 07;
167B : 07;
167C : 00;
167D : 00;
167E : 00;
167F : 80;
1680 : ff;
1681 : ff;
1682 : ff;
1683 : ff;
1684 : 00;
1685 : 00;
1686 : 00;
1687 : 00;
1688 : 00;
1689 : 00;
168A : 00;
168B : 00;
168C : 00;
168D : 00;
168E : ff;
168F : ff;
1690 : 00;
1691 : 00;
1692 : 00;
1693 : 00;
1694 : ff;
1695 : ff;
1696 : ff;
1697 : ff;
1698 : ff;
1699 : ff;
169A : ff;
169B : ff;
169C : 00;
169D : 00;
169E : 00;
169F : 00;
16A0 : 1f;
16A1 : 07;
16A2 : 03;
16A3 : 01;
16A4 : 01;
16A5 : 00;
16A6 : 00;
16A7 : 00;
16A8 : 00;
16A9 : 00;
16AA : f0;
16AB : fc;
16AC : fe;
16AD : ff;
16AE : ff;
16AF : ff;
16B0 : 00;
16B1 : 00;
16B2 : 60;
16B3 : f0;
16B4 : f0;
16B5 : f0;
16B6 : f0;
16B7 : f0;
16B8 : ff;
16B9 : ff;
16BA : 9f;
16BB : 0f;
16BC : 07;
16BD : 07;
16BE : 03;
16BF : 03;
16C0 : 00;
16C1 : 00;
16C2 : 06;
16C3 : 0f;
16C4 : 0f;
16C5 : 0f;
16C6 : 0f;
16C7 : 0f;
16C8 : 3f;
16C9 : bf;
16CA : f9;
16CB : f0;
16CC : f0;
16CD : f0;
16CE : f0;
16CF : f0;
16D0 : 00;
16D1 : 00;
16D2 : 00;
16D3 : 00;
16D4 : 00;
16D5 : 00;
16D6 : 00;
16D7 : 00;
16D8 : ff;
16D9 : ff;
16DA : ff;
16DB : ff;
16DC : 7f;
16DD : 7f;
16DE : 3f;
16DF : 3f;
16E0 : 3e;
16E1 : 7f;
16E2 : ff;
16E3 : fe;
16E4 : e0;
16E5 : e0;
16E6 : e0;
16E7 : e0;
16E8 : c1;
16E9 : 80;
16EA : 00;
16EB : 00;
16EC : 00;
16ED : 00;
16EE : 07;
16EF : 07;
16F0 : e0;
16F1 : e0;
16F2 : e0;
16F3 : e0;
16F4 : fe;
16F5 : ff;
16F6 : ff;
16F7 : fe;
16F8 : 07;
16F9 : 07;
16FA : 07;
16FB : 07;
16FC : 01;
16FD : 00;
16FE : 00;
16FF : 00;
1700 : 80;
1701 : 80;
1702 : 80;
1703 : 80;
1704 : 80;
1705 : 80;
1706 : 80;
1707 : 80;
1708 : 00;
1709 : 00;
170A : 1f;
170B : 1f;
170C : 1f;
170D : 1f;
170E : 1f;
170F : 1f;
1710 : 00;
1711 : 00;
1712 : 00;
1713 : 00;
1714 : 01;
1715 : 01;
1716 : 03;
1717 : 07;
1718 : ff;
1719 : ff;
171A : 7f;
171B : 7f;
171C : 7e;
171D : fe;
171E : fc;
171F : f8;
1720 : 1f;
1721 : 07;
1722 : 03;
1723 : 01;
1724 : 01;
1725 : 00;
1726 : 00;
1727 : 00;
1728 : e0;
1729 : e0;
172A : e0;
172B : f8;
172C : fc;
172D : fe;
172E : 7f;
172F : 7f;
1730 : 00;
1731 : 00;
1732 : 00;
1733 : 00;
1734 : 01;
1735 : 01;
1736 : 03;
1737 : 07;
1738 : 7f;
1739 : ff;
173A : ff;
173B : ff;
173C : fe;
173D : fe;
173E : fc;
173F : f8;
1740 : f0;
1741 : f0;
1742 : f0;
1743 : f0;
1744 : f0;
1745 : f0;
1746 : f0;
1747 : f0;
1748 : 03;
1749 : 03;
174A : 03;
174B : 03;
174C : 03;
174D : 03;
174E : 03;
174F : 03;
1750 : 0f;
1751 : 0f;
1752 : 0f;
1753 : 0f;
1754 : 0f;
1755 : 0f;
1756 : 0f;
1757 : 0f;
1758 : f0;
1759 : f0;
175A : f0;
175B : f0;
175C : f0;
175D : f0;
175E : f0;
175F : f0;
1760 : e0;
1761 : e0;
1762 : e0;
1763 : e0;
1764 : fe;
1765 : ff;
1766 : ff;
1767 : ff;
1768 : 07;
1769 : 07;
176A : 07;
176B : 07;
176C : 01;
176D : 00;
176E : 00;
176F : 00;
1770 : ff;
1771 : ff;
1772 : ff;
1773 : ff;
1774 : ff;
1775 : ff;
1776 : ff;
1777 : ff;
1778 : 80;
1779 : 40;
177A : 20;
177B : 10;
177C : 0f;
177D : 08;
177E : 08;
177F : 08;
1780 : ff;
1781 : ff;
1782 : ff;
1783 : ff;
1784 : ff;
1785 : ff;
1786 : ff;
1787 : ff;
1788 : 08;
1789 : 08;
178A : 08;
178B : 08;
178C : 08;
178D : 08;
178E : 08;
178F : 08;
1790 : ff;
1791 : ff;
1792 : ff;
1793 : f8;
1794 : f0;
1795 : e0;
1796 : c0;
1797 : 80;
1798 : 08;
1799 : 08;
179A : 08;
179B : 08;
179C : 0f;
179D : 1f;
179E : 3f;
179F : 7f;
17A0 : ff;
17A1 : ff;
17A2 : ff;
17A3 : ff;
17A4 : ff;
17A5 : ff;
17A6 : ff;
17A7 : ff;
17A8 : 00;
17A9 : 00;
17AA : 00;
17AB : 00;
17AC : ff;
17AD : 00;
17AE : 00;
17AF : 00;
17B0 : ff;
17B1 : ff;
17B2 : ff;
17B3 : 00;
17B4 : 00;
17B5 : 00;
17B6 : 00;
17B7 : 00;
17B8 : 00;
17B9 : 00;
17BA : 00;
17BB : 00;
17BC : ff;
17BD : ff;
17BE : ff;
17BF : ff;
17C0 : ff;
17C1 : fe;
17C2 : fc;
17C3 : f8;
17C4 : f0;
17C5 : e0;
17C6 : e0;
17C7 : e0;
17C8 : 00;
17C9 : 01;
17CA : 03;
17CB : 07;
17CC : ff;
17CD : 0f;
17CE : 0f;
17CF : 0f;
17D0 : e0;
17D1 : e0;
17D2 : e0;
17D3 : e0;
17D4 : e0;
17D5 : e0;
17D6 : e0;
17D7 : e0;
17D8 : 0f;
17D9 : 0f;
17DA : 0f;
17DB : 0f;
17DC : 0f;
17DD : 0f;
17DE : 0f;
17DF : 0f;
17E0 : e0;
17E1 : e0;
17E2 : e0;
17E3 : 00;
17E4 : 00;
17E5 : 00;
17E6 : 00;
17E7 : 00;
17E8 : 0f;
17E9 : 0f;
17EA : 0f;
17EB : 0f;
17EC : f7;
17ED : fb;
17EE : fd;
17EF : fe;
17F0 : fc;
17F1 : fd;
17F2 : 31;
17F3 : 31;
17F4 : 31;
17F5 : 31;
17F6 : 30;
17F7 : 00;
17F8 : 00;
17F9 : 00;
17FA : 00;
17FB : 00;
17FC : 00;
17FD : 00;
17FE : 00;
17FF : 00;
1800 : f3;
1801 : fb;
1802 : 9b;
1803 : 9b;
1804 : 9b;
1805 : fb;
1806 : f3;
1807 : 00;
1808 : 00;
1809 : 00;
180A : 00;
180B : 00;
180C : 00;
180D : 00;
180E : 00;
180F : 00;
1810 : e0;
1811 : f0;
1812 : 30;
1813 : f6;
1814 : e6;
1815 : 00;
1816 : 00;
1817 : 00;
1818 : 00;
1819 : 00;
181A : 00;
181B : 00;
181C : 00;
181D : 00;
181E : 00;
181F : 00;
1820 : 0f;
1821 : 06;
1822 : 06;
1823 : 06;
1824 : 06;
1825 : 06;
1826 : 0f;
1827 : 00;
1828 : 00;
1829 : 00;
182A : 00;
182B : 00;
182C : 00;
182D : 00;
182E : 00;
182F : 00;
1830 : f0;
1831 : 60;
1832 : 60;
1833 : 66;
1834 : 66;
1835 : 60;
1836 : f0;
1837 : 00;
1838 : 00;
1839 : 00;
183A : 00;
183B : 00;
183C : 00;
183D : 00;
183E : 00;
183F : 00;
1840 : 00;
1841 : 00;
1842 : 00;
1843 : 00;
1844 : 07;
1845 : 0c;
1846 : 08;
1847 : 08;
1848 : 00;
1849 : 00;
184A : 1f;
184B : 30;
184C : 20;
184D : 20;
184E : 20;
184F : 20;
1850 : 08;
1851 : 08;
1852 : 08;
1853 : 08;
1854 : 08;
1855 : 08;
1856 : 08;
1857 : 08;
1858 : 20;
1859 : 20;
185A : 20;
185B : 20;
185C : 20;
185D : 20;
185E : 20;
185F : 20;
1860 : 08;
1861 : 0c;
1862 : 07;
1863 : 00;
1864 : 00;
1865 : 00;
1866 : 00;
1867 : 00;
1868 : 20;
1869 : 20;
186A : 20;
186B : 30;
186C : 1f;
186D : 00;
186E : 00;
186F : 00;
1870 : 00;
1871 : 00;
1872 : 00;
1873 : 00;
1874 : ff;
1875 : 00;
1876 : 00;
1877 : 00;
1878 : 00;
1879 : 00;
187A : ff;
187B : 00;
187C : 00;
187D : 00;
187E : 00;
187F : 00;
1880 : 00;
1881 : 00;
1882 : ff;
1883 : 00;
1884 : 00;
1885 : 00;
1886 : 00;
1887 : 00;
1888 : 00;
1889 : 00;
188A : 00;
188B : 00;
188C : ff;
188D : 00;
188E : 00;
188F : 00;
1890 : 00;
1891 : 00;
1892 : 00;
1893 : 00;
1894 : c0;
1895 : 60;
1896 : 20;
1897 : 20;
1898 : 00;
1899 : 00;
189A : f0;
189B : 18;
189C : 08;
189D : 08;
189E : 08;
189F : 08;
18A0 : 20;
18A1 : 20;
18A2 : 20;
18A3 : 20;
18A4 : 20;
18A5 : 20;
18A6 : 20;
18A7 : 20;
18A8 : 08;
18A9 : 08;
18AA : 08;
18AB : 08;
18AC : 08;
18AD : 08;
18AE : 08;
18AF : 08;
18B0 : 20;
18B1 : 60;
18B2 : c0;
18B3 : 00;
18B4 : 00;
18B5 : 00;
18B6 : 00;
18B7 : 00;
18B8 : 08;
18B9 : 08;
18BA : 08;
18BB : 18;
18BC : f0;
18BD : 00;
18BE : 00;
18BF : 00;
18C0 : 00;
18C1 : 3a;
18C2 : 5c;
18C3 : 66;
18C4 : 66;
18C5 : 3a;
18C6 : 5c;
18C7 : 00;
18C8 : 77;
18C9 : 81;
18CA : 81;
18CB : 9a;
18CC : 1f;
18CD : 9b;
18CE : 9d;
18CF : ee;
18D0 : fc;
18D1 : c6;
18D2 : c6;
18D3 : c6;
18D4 : fc;
18D5 : c0;
18D6 : c0;
18D7 : 00;
18D8 : 00;
18D9 : 00;
18DA : 00;
18DB : 00;
18DC : 00;
18DD : 00;
18DE : 00;
18DF : 00;
18E0 : fc;
18E1 : c6;
18E2 : c6;
18E3 : ce;
18E4 : f8;
18E5 : dc;
18E6 : ce;
18E7 : 00;
18E8 : 00;
18E9 : 00;
18EA : 00;
18EB : 00;
18EC : 00;
18ED : 00;
18EE : 00;
18EF : 00;
18F0 : 00;
18F1 : 5c;
18F2 : 3a;
18F3 : 66;
18F4 : 66;
18F5 : 5c;
18F6 : 3a;
18F7 : 00;
18F8 : ee;
18F9 : 81;
18FA : 83;
18FB : 1f;
18FC : 9e;
18FD : 9d;
18FE : bb;
18FF : 77;
1900 : 7f;
1901 : ff;
1902 : c3;
1903 : 81;
1904 : 81;
1905 : c3;
1906 : ff;
1907 : 7f;
1908 : 00;
1909 : 00;
190A : 3d;
190B : 7f;
190C : 7f;
190D : 7f;
190E : ff;
190F : 7f;
1910 : 78;
1911 : cc;
1912 : c0;
1913 : 7c;
1914 : 06;
1915 : c6;
1916 : 7c;
1917 : 00;
1918 : 00;
1919 : 00;
191A : 00;
191B : 00;
191C : 00;
191D : 00;
191E : 00;
191F : 00;
1920 : 7f;
1921 : c1;
1922 : c1;
1923 : 7f;
1924 : 00;
1925 : 00;
1926 : 00;
1927 : 00;
1928 : 00;
1929 : 3f;
192A : 7f;
192B : 7f;
192C : 00;
192D : 00;
192E : 00;
192F : 00;
1930 : c6;
1931 : c6;
1932 : c6;
1933 : c6;
1934 : c6;
1935 : c6;
1936 : 7c;
1937 : 00;
1938 : 00;
1939 : 00;
193A : 00;
193B : 00;
193C : 00;
193D : 00;
193E : 00;
193F : 00;
1940 : c6;
1941 : c6;
1942 : d6;
1943 : fe;
1944 : fe;
1945 : ee;
1946 : c6;
1947 : 00;
1948 : 00;
1949 : 00;
194A : 00;
194B : 00;
194C : 00;
194D : 00;
194E : 00;
194F : 00;
1950 : 00;
1951 : 0f;
1952 : 1f;
1953 : 38;
1954 : 70;
1955 : 60;
1956 : 60;
1957 : 60;
1958 : 00;
1959 : 0f;
195A : 1f;
195B : 38;
195C : 73;
195D : 67;
195E : 6e;
195F : 6c;
1960 : 61;
1961 : 61;
1962 : 61;
1963 : 61;
1964 : 61;
1965 : 61;
1966 : 61;
1967 : 61;
1968 : 6c;
1969 : 6c;
196A : 6c;
196B : 6c;
196C : 6c;
196D : 6c;
196E : 6c;
196F : 6c;
1970 : 60;
1971 : 60;
1972 : 60;
1973 : 70;
1974 : 38;
1975 : 1f;
1976 : 0f;
1977 : 00;
1978 : 6c;
1979 : 6e;
197A : 67;
197B : 73;
197C : 38;
197D : 1f;
197E : 0f;
197F : 00;
1980 : 00;
1981 : ff;
1982 : ff;
1983 : 00;
1984 : 00;
1985 : 00;
1986 : 00;
1987 : ff;
1988 : 00;
1989 : ff;
198A : ff;
198B : 00;
198C : ff;
198D : ff;
198E : 00;
198F : 00;
1990 : ff;
1991 : 00;
1992 : 00;
1993 : 00;
1994 : 00;
1995 : ff;
1996 : ff;
1997 : 00;
1998 : 00;
1999 : 00;
199A : ff;
199B : ff;
199C : 00;
199D : ff;
199E : ff;
199F : 00;
19A0 : 00;
19A1 : f0;
19A2 : f8;
19A3 : 1c;
19A4 : 0e;
19A5 : 06;
19A6 : 06;
19A7 : 06;
19A8 : 00;
19A9 : f0;
19AA : f8;
19AB : 1c;
19AC : ce;
19AD : e6;
19AE : 76;
19AF : 36;
19B0 : 86;
19B1 : 86;
19B2 : 86;
19B3 : 86;
19B4 : 86;
19B5 : 86;
19B6 : 86;
19B7 : 86;
19B8 : 36;
19B9 : 36;
19BA : 36;
19BB : 36;
19BC : 36;
19BD : 36;
19BE : 36;
19BF : 36;
19C0 : 06;
19C1 : 06;
19C2 : 06;
19C3 : 0e;
19C4 : 1c;
19C5 : f8;
19C6 : f0;
19C7 : 00;
19C8 : 36;
19C9 : 76;
19CA : e6;
19CB : ce;
19CC : 1c;
19CD : f8;
19CE : f0;
19CF : 00;
19D0 : e7;
19D1 : ff;
19D2 : 7e;
19D3 : 3c;
19D4 : 3c;
19D5 : 3c;
19D6 : 3c;
19D7 : 3c;
19D8 : 00;
19D9 : 30;
19DA : f1;
19DB : f3;
19DC : f3;
19DD : f3;
19DE : f3;
19DF : f3;
19E0 : 3c;
19E1 : 3c;
19E2 : 3c;
19E3 : 3c;
19E4 : 3c;
19E5 : 3c;
19E6 : 3c;
19E7 : 3c;
19E8 : f3;
19E9 : f3;
19EA : f3;
19EB : f3;
19EC : f3;
19ED : f3;
19EE : f3;
19EF : f3;
19F0 : 7e;
19F1 : ff;
19F2 : e7;
19F3 : c3;
19F4 : c3;
19F5 : c3;
19F6 : c3;
19F7 : c3;
19F8 : 00;
19F9 : 03;
19FA : 1f;
19FB : 3f;
19FC : 3f;
19FD : 3f;
19FE : 3f;
19FF : 3f;
1A00 : c3;
1A01 : c3;
1A02 : c3;
1A03 : c3;
1A04 : c3;
1A05 : c3;
1A06 : c3;
1A07 : c3;
1A08 : 3f;
1A09 : 3f;
1A0A : 3f;
1A0B : 3f;
1A0C : 3f;
1A0D : 3f;
1A0E : 3f;
1A0F : 3f;
1A10 : c3;
1A11 : c3;
1A12 : c3;
1A13 : c3;
1A14 : c3;
1A15 : c3;
1A16 : c3;
1A17 : c3;
1A18 : 3f;
1A19 : 3f;
1A1A : 3f;
1A1B : 3f;
1A1C : 3f;
1A1D : 3f;
1A1E : 3f;
1A1F : 3f;
1A20 : 00;
1A21 : 7e;
1A22 : 7e;
1A23 : 66;
1A24 : 66;
1A25 : 7a;
1A26 : 7c;
1A27 : 00;
1A28 : ff;
1A29 : c1;
1A2A : a3;
1A2B : 9f;
1A2C : 9f;
1A2D : bb;
1A2E : fd;
1A2F : ff;
1A30 : 66;
1A31 : 66;
1A32 : 66;
1A33 : 3c;
1A34 : 18;
1A35 : 18;
1A36 : 18;
1A37 : 00;
1A38 : 00;
1A39 : 00;
1A3A : 00;
1A3B : 00;
1A3C : 00;
1A3D : 00;
1A3E : 00;
1A3F : 00;
1A40 : 00;
1A41 : 00;
1A42 : 00;
1A43 : 00;
1A44 : 00;
1A45 : 00;
1A46 : 00;
1A47 : 00;
1A48 : ff;
1A49 : ff;
1A4A : ff;
1A4B : ff;
1A4C : ff;
1A4D : ff;
1A4E : ff;
1A4F : ff;
1A50 : 40;
1A51 : 20;
1A52 : 08;
1A53 : 50;
1A54 : 20;
1A55 : 30;
1A56 : 04;
1A57 : 00;
1A58 : ff;
1A59 : ff;
1A5A : ff;
1A5B : ff;
1A5C : ff;
1A5D : ff;
1A5E : ff;
1A5F : ff;
1A60 : 00;
1A61 : 00;
1A62 : 00;
1A63 : 00;
1A64 : 00;
1A65 : 01;
1A66 : 42;
1A67 : 01;
1A68 : ff;
1A69 : ff;
1A6A : ff;
1A6B : ff;
1A6C : ff;
1A6D : ff;
1A6E : ff;
1A6F : ff;
1A70 : 0a;
1A71 : 01;
1A72 : 20;
1A73 : 14;
1A74 : 81;
1A75 : 04;
1A76 : 28;
1A77 : 54;
1A78 : ff;
1A79 : ff;
1A7A : ff;
1A7B : ff;
1A7C : ff;
1A7D : ff;
1A7E : ff;
1A7F : ff;
1A80 : aa;
1A81 : 55;
1A82 : aa;
1A83 : 55;
1A84 : aa;
1A85 : fd;
1A86 : ff;
1A87 : ff;
1A88 : ff;
1A89 : ff;
1A8A : ff;
1A8B : ff;
1A8C : ff;
1A8D : ff;
1A8E : ff;
1A8F : ff;
1A90 : 00;
1A91 : 00;
1A92 : 00;
1A93 : 00;
1A94 : c0;
1A95 : 60;
1A96 : 20;
1A97 : 20;
1A98 : 00;
1A99 : 00;
1A9A : 00;
1A9B : e0;
1A9C : 30;
1A9D : 10;
1A9E : 10;
1A9F : 10;
1AA0 : 00;
1AA1 : 38;
1AA2 : 0c;
1AA3 : 4c;
1AA4 : 86;
1AA5 : 06;
1AA6 : 4b;
1AA7 : 01;
1AA8 : ff;
1AA9 : c7;
1AAA : f3;
1AAB : f3;
1AAC : f9;
1AAD : f9;
1AAE : f4;
1AAF : fe;
1AB0 : 00;
1AB1 : 00;
1AB2 : 00;
1AB3 : 08;
1AB4 : 20;
1AB5 : 00;
1AB6 : 02;
1AB7 : 00;
1AB8 : ff;
1AB9 : ff;
1ABA : ff;
1ABB : ff;
1ABC : ff;
1ABD : ff;
1ABE : ff;
1ABF : ff;
1AC0 : 00;
1AC1 : 38;
1AC2 : 5c;
1AC3 : 5c;
1AC4 : 8e;
1AC5 : 4a;
1AC6 : 86;
1AC7 : 26;
1AC8 : ff;
1AC9 : c7;
1ACA : e3;
1ACB : e3;
1ACC : f1;
1ACD : f5;
1ACE : f9;
1ACF : f9;
1AD0 : 82;
1AD1 : 12;
1AD2 : 42;
1AD3 : 01;
1AD4 : 10;
1AD5 : 81;
1AD6 : 0a;
1AD7 : 45;
1AD8 : fd;
1AD9 : fd;
1ADA : fd;
1ADB : fe;
1ADC : ff;
1ADD : ff;
1ADE : ff;
1ADF : ff;
1AE0 : 8a;
1AE1 : 55;
1AE2 : aa;
1AE3 : 55;
1AE4 : aa;
1AE5 : d5;
1AE6 : ff;
1AE7 : ff;
1AE8 : ff;
1AE9 : ff;
1AEA : ff;
1AEB : ff;
1AEC : ff;
1AED : ff;
1AEE : ff;
1AEF : ff;
1AF0 : 08;
1AF1 : 08;
1AF2 : 08;
1AF3 : 08;
1AF4 : 08;
1AF5 : 08;
1AF6 : 08;
1AF7 : 08;
1AF8 : 10;
1AF9 : 10;
1AFA : 10;
1AFB : 10;
1AFC : 10;
1AFD : 10;
1AFE : 10;
1AFF : 10;
1B00 : 00;
1B01 : 00;
1B02 : 00;
1B03 : 40;
1B04 : 60;
1B05 : 24;
1B06 : 1a;
1B07 : 00;
1B08 : ff;
1B09 : ff;
1B0A : ff;
1B0B : ff;
1B0C : ff;
1B0D : ff;
1B0E : ff;
1B0F : ff;
1B10 : 00;
1B11 : 00;
1B12 : 00;
1B13 : 00;
1B14 : 00;
1B15 : 01;
1B16 : 02;
1B17 : 0b;
1B18 : ff;
1B19 : ff;
1B1A : ff;
1B1B : ff;
1B1C : ff;
1B1D : ff;
1B1E : ff;
1B1F : ff;
1B20 : 02;
1B21 : 15;
1B22 : 0e;
1B23 : 05;
1B24 : 02;
1B25 : 14;
1B26 : 01;
1B27 : 2a;
1B28 : ff;
1B29 : ff;
1B2A : ff;
1B2B : ff;
1B2C : ff;
1B2D : ff;
1B2E : ff;
1B2F : ff;
1B30 : 00;
1B31 : 04;
1B32 : 80;
1B33 : 48;
1B34 : 80;
1B35 : 40;
1B36 : a8;
1B37 : 54;
1B38 : ff;
1B39 : ff;
1B3A : ff;
1B3B : ff;
1B3C : ff;
1B3D : ff;
1B3E : ff;
1B3F : ff;
1B40 : aa;
1B41 : 55;
1B42 : aa;
1B43 : 57;
1B44 : bf;
1B45 : 5f;
1B46 : ef;
1B47 : ff;
1B48 : ff;
1B49 : ff;
1B4A : ff;
1B4B : ff;
1B4C : ff;
1B4D : ff;
1B4E : ff;
1B4F : ff;
1B50 : 20;
1B51 : 20;
1B52 : 20;
1B53 : 20;
1B54 : 20;
1B55 : 20;
1B56 : 20;
1B57 : 20;
1B58 : 10;
1B59 : 10;
1B5A : 10;
1B5B : 10;
1B5C : 10;
1B5D : 10;
1B5E : 10;
1B5F : 10;
1B60 : 00;
1B61 : 00;
1B62 : 00;
1B63 : 00;
1B64 : 00;
1B65 : 00;
1B66 : 00;
1B67 : 00;
1B68 : ff;
1B69 : ff;
1B6A : ff;
1B6B : ff;
1B6C : ff;
1B6D : ff;
1B6E : ff;
1B6F : ff;
1B70 : 1c;
1B71 : 7e;
1B72 : de;
1B73 : 0f;
1B74 : 9f;
1B75 : 07;
1B76 : a3;
1B77 : 00;
1B78 : e3;
1B79 : 81;
1B7A : 21;
1B7B : f0;
1B7C : e0;
1B7D : f8;
1B7E : fc;
1B7F : ff;
1B80 : 80;
1B81 : 20;
1B82 : 80;
1B83 : 00;
1B84 : 40;
1B85 : 80;
1B86 : 00;
1B87 : 20;
1B88 : ff;
1B89 : ff;
1B8A : ff;
1B8B : ff;
1B8C : ff;
1B8D : ff;
1B8E : ff;
1B8F : ff;
1B90 : 04;
1B91 : 00;
1B92 : 00;
1B93 : 40;
1B94 : 00;
1B95 : 80;
1B96 : 21;
1B97 : 50;
1B98 : ff;
1B99 : ff;
1B9A : ff;
1B9B : ff;
1B9C : ff;
1B9D : ff;
1B9E : ff;
1B9F : ff;
1BA0 : a1;
1BA1 : 52;
1BA2 : a9;
1BA3 : 53;
1BA4 : bd;
1BA5 : ff;
1BA6 : ff;
1BA7 : ff;
1BA8 : ff;
1BA9 : ff;
1BAA : ff;
1BAB : ff;
1BAC : ff;
1BAD : ff;
1BAE : ff;
1BAF : ff;
1BB0 : 08;
1BB1 : 0c;
1BB2 : 07;
1BB3 : 00;
1BB4 : 00;
1BB5 : 00;
1BB6 : 00;
1BB7 : 00;
1BB8 : 10;
1BB9 : 10;
1BBA : 18;
1BBB : 0f;
1BBC : 00;
1BBD : 00;
1BBE : 00;
1BBF : 00;
1BC0 : 80;
1BC1 : 80;
1BC2 : c0;
1BC3 : 60;
1BC4 : 60;
1BC5 : 70;
1BC6 : 38;
1BC7 : 3c;
1BC8 : 00;
1BC9 : 00;
1BCA : 00;
1BCB : 80;
1BCC : 80;
1BCD : 80;
1BCE : c0;
1BCF : c0;
1BD0 : 7c;
1BD1 : fc;
1BD2 : cc;
1BD3 : 86;
1BD4 : 06;
1BD5 : 82;
1BD6 : 83;
1BD7 : c3;
1BD8 : 80;
1BD9 : 00;
1BDA : 30;
1BDB : 78;
1BDC : f8;
1BDD : 7c;
1BDE : 7c;
1BDF : 3c;
1BE0 : c3;
1BE1 : 47;
1BE2 : 47;
1BE3 : 47;
1BE4 : 43;
1BE5 : 42;
1BE6 : 04;
1BE7 : 00;
1BE8 : 3c;
1BE9 : b8;
1BEA : b8;
1BEB : b8;
1BEC : bc;
1BED : bd;
1BEE : fb;
1BEF : ff;
1BF0 : 00;
1BF1 : 00;
1BF2 : 20;
1BF3 : 1a;
1BF4 : 04;
1BF5 : 80;
1BF6 : 40;
1BF7 : a0;
1BF8 : ff;
1BF9 : ff;
1BFA : ff;
1BFB : ff;
1BFC : ff;
1BFD : ff;
1BFE : ff;
1BFF : ff;
1C00 : 50;
1C01 : ea;
1C02 : 75;
1C03 : aa;
1C04 : f5;
1C05 : fe;
1C06 : ff;
1C07 : ff;
1C08 : ff;
1C09 : ff;
1C0A : ff;
1C0B : ff;
1C0C : ff;
1C0D : ff;
1C0E : ff;
1C0F : ff;
1C10 : 00;
1C11 : 00;
1C12 : ff;
1C13 : 00;
1C14 : 00;
1C15 : 00;
1C16 : 00;
1C17 : 00;
1C18 : 00;
1C19 : 00;
1C1A : 00;
1C1B : ff;
1C1C : 00;
1C1D : 00;
1C1E : 00;
1C1F : 00;
1C20 : 00;
1C21 : 00;
1C22 : 00;
1C23 : 00;
1C24 : 00;
1C25 : 00;
1C26 : 00;
1C27 : 00;
1C28 : 00;
1C29 : 00;
1C2A : 00;
1C2B : 00;
1C2C : 00;
1C2D : 00;
1C2E : 00;
1C2F : 00;
1C30 : 00;
1C31 : 00;
1C32 : 00;
1C33 : 00;
1C34 : 00;
1C35 : 00;
1C36 : 00;
1C37 : 00;
1C38 : 00;
1C39 : 00;
1C3A : 00;
1C3B : 00;
1C3C : 00;
1C3D : 00;
1C3E : 00;
1C3F : 00;
1C40 : 00;
1C41 : 80;
1C42 : 80;
1C43 : c0;
1C44 : c0;
1C45 : c0;
1C46 : c0;
1C47 : 60;
1C48 : 00;
1C49 : 00;
1C4A : 00;
1C4B : 00;
1C4C : 00;
1C4D : 00;
1C4E : 00;
1C4F : 80;
1C50 : 60;
1C51 : 30;
1C52 : 38;
1C53 : 18;
1C54 : 0c;
1C55 : 1c;
1C56 : 7c;
1C57 : 9c;
1C58 : 80;
1C59 : c0;
1C5A : c0;
1C5B : e0;
1C5C : f0;
1C5D : e0;
1C5E : 80;
1C5F : 60;
1C60 : 0e;
1C61 : 0e;
1C62 : 06;
1C63 : 26;
1C64 : d2;
1C65 : ea;
1C66 : f7;
1C67 : ff;
1C68 : f0;
1C69 : f0;
1C6A : f8;
1C6B : f8;
1C6C : fc;
1C6D : fc;
1C6E : fe;
1C6F : fe;
1C70 : 20;
1C71 : 60;
1C72 : c0;
1C73 : 00;
1C74 : 00;
1C75 : 00;
1C76 : 00;
1C77 : 00;
1C78 : 10;
1C79 : 10;
1C7A : 30;
1C7B : e0;
1C7C : 00;
1C7D : 00;
1C7E : 00;
1C7F : 00;
1C80 : 00;
1C81 : 00;
1C82 : 00;
1C83 : 00;
1C84 : 00;
1C85 : 00;
1C86 : 00;
1C87 : 00;
1C88 : 00;
1C89 : 00;
1C8A : 00;
1C8B : 00;
1C8C : 00;
1C8D : 00;
1C8E : 00;
1C8F : 00;
1C90 : 00;
1C91 : 00;
1C92 : 00;
1C93 : 00;
1C94 : 00;
1C95 : 00;
1C96 : 00;
1C97 : 00;
1C98 : 00;
1C99 : 00;
1C9A : 00;
1C9B : 00;
1C9C : 00;
1C9D : 00;
1C9E : 00;
1C9F : 00;
1CA0 : 00;
1CA1 : 01;
1CA2 : 01;
1CA3 : 01;
1CA4 : 01;
1CA5 : 03;
1CA6 : 02;
1CA7 : 06;
1CA8 : 00;
1CA9 : 00;
1CAA : 00;
1CAB : 00;
1CAC : 00;
1CAD : 00;
1CAE : 01;
1CAF : 01;
1CB0 : 07;
1CB1 : 07;
1CB2 : 07;
1CB3 : 07;
1CB4 : 07;
1CB5 : 0e;
1CB6 : 0c;
1CB7 : 0c;
1CB8 : 00;
1CB9 : 00;
1CBA : 00;
1CBB : 00;
1CBC : 00;
1CBD : 01;
1CBE : 03;
1CBF : 03;
1CC0 : 1d;
1CC1 : 1c;
1CC2 : 18;
1CC3 : 1d;
1CC4 : 3a;
1CC5 : 35;
1CC6 : 7f;
1CC7 : ff;
1CC8 : 03;
1CC9 : 03;
1CCA : 07;
1CCB : 07;
1CCC : 0f;
1CCD : 1f;
1CCE : 3f;
1CCF : 7f;
1CD0 : ee;
1CD1 : dd;
1CD2 : 00;
1CD3 : 00;
1CD4 : 00;
1CD5 : dd;
1CD6 : bb;
1CD7 : 00;
1CD8 : 00;
1CD9 : 00;
1CDA : bb;
1CDB : 77;
1CDC : ee;
1CDD : dd;
1CDE : bb;
1CDF : 77;
1CE0 : 01;
1CE1 : 01;
1CE2 : 03;
1CE3 : 07;
1CE4 : 06;
1CE5 : 0e;
1CE6 : 0c;
1CE7 : 08;
1CE8 : 00;
1CE9 : 00;
1CEA : 00;
1CEB : 00;
1CEC : 01;
1CED : 01;
1CEE : 03;
1CEF : 07;
1CF0 : 18;
1CF1 : 38;
1CF2 : 30;
1CF3 : 32;
1CF4 : 74;
1CF5 : 7c;
1CF6 : 7c;
1CF7 : 7c;
1CF8 : 07;
1CF9 : 07;
1CFA : 0f;
1CFB : 0d;
1CFC : 0b;
1CFD : 03;
1CFE : 03;
1CFF : 03;
1D00 : dc;
1D01 : d8;
1D02 : 88;
1D03 : 08;
1D04 : 08;
1D05 : 01;
1D06 : 21;
1D07 : 41;
1D08 : 23;
1D09 : 27;
1D0A : 77;
1D0B : f7;
1D0C : f7;
1D0D : fe;
1D0E : fe;
1D0F : fe;
1D10 : 01;
1D11 : 03;
1D12 : 02;
1D13 : 82;
1D14 : c2;
1D15 : 20;
1D16 : 01;
1D17 : 02;
1D18 : fe;
1D19 : fc;
1D1A : fd;
1D1B : 7d;
1D1C : 3d;
1D1D : df;
1D1E : ff;
1D1F : ff;
1D20 : 05;
1D21 : 12;
1D22 : a9;
1D23 : 57;
1D24 : bf;
1D25 : 77;
1D26 : ff;
1D27 : ff;
1D28 : ff;
1D29 : ff;
1D2A : ff;
1D2B : ff;
1D2C : ff;
1D2D : ff;
1D2E : ff;
1D2F : ff;
1D30 : 77;
1D31 : bb;
1D32 : 00;
1D33 : 00;
1D34 : 00;
1D35 : bb;
1D36 : dd;
1D37 : 00;
1D38 : 00;
1D39 : 00;
1D3A : dd;
1D3B : ee;
1D3C : 77;
1D3D : bb;
1D3E : dd;
1D3F : ee;
1D40 : 00;
1D41 : 04;
1D42 : 00;
1D43 : 00;
1D44 : 20;
1D45 : 00;
1D46 : 02;
1D47 : 00;
1D48 : ff;
1D49 : ff;
1D4A : ff;
1D4B : ff;
1D4C : ff;
1D4D : ff;
1D4E : ff;
1D4F : ff;
1D50 : 00;
1D51 : 04;
1D52 : 08;
1D53 : 08;
1D54 : 10;
1D55 : 00;
1D56 : 00;
1D57 : 00;
1D58 : ff;
1D59 : ff;
1D5A : ff;
1D5B : ff;
1D5C : ff;
1D5D : ff;
1D5E : ff;
1D5F : ff;
1D60 : 00;
1D61 : 38;
1D62 : 70;
1D63 : e2;
1D64 : e6;
1D65 : c2;
1D66 : 81;
1D67 : 81;
1D68 : ff;
1D69 : c7;
1D6A : 8f;
1D6B : 1f;
1D6C : 1f;
1D6D : 3f;
1D6E : 7f;
1D6F : 7f;
1D70 : 02;
1D71 : 01;
1D72 : 04;
1D73 : 01;
1D74 : 0a;
1D75 : 81;
1D76 : 4a;
1D77 : a4;
1D78 : ff;
1D79 : ff;
1D7A : ff;
1D7B : ff;
1D7C : ff;
1D7D : ff;
1D7E : ff;
1D7F : ff;
1D80 : 57;
1D81 : ae;
1D82 : d7;
1D83 : ef;
1D84 : ff;
1D85 : ff;
1D86 : ff;
1D87 : ff;
1D88 : ff;
1D89 : ff;
1D8A : ff;
1D8B : ff;
1D8C : ff;
1D8D : ff;
1D8E : ff;
1D8F : ff;
1D90 : 00;
1D91 : 04;
1D92 : 00;
1D93 : 40;
1D94 : 00;
1D95 : 00;
1D96 : 08;
1D97 : 00;
1D98 : 00;
1D99 : 00;
1D9A : 00;
1D9B : 00;
1D9C : 00;
1D9D : 00;
1D9E : 08;
1D9F : 00;
1DA0 : 00;
1DA1 : 00;
1DA2 : 00;
1DA3 : 00;
1DA4 : 00;
1DA5 : 00;
1DA6 : 00;
1DA7 : 00;
1DA8 : ff;
1DA9 : ff;
1DAA : ff;
1DAB : ff;
1DAC : ff;
1DAD : ff;
1DAE : ff;
1DAF : ff;
1DB0 : 00;
1DB1 : 04;
1DB2 : 00;
1DB3 : 00;
1DB4 : 20;
1DB5 : 00;
1DB6 : 02;
1DB7 : 00;
1DB8 : ff;
1DB9 : ff;
1DBA : ff;
1DBB : ff;
1DBC : ff;
1DBD : ff;
1DBE : ff;
1DBF : ff;
1DC0 : 00;
1DC1 : 00;
1DC2 : 00;
1DC3 : 02;
1DC4 : 24;
1DC5 : 18;
1DC6 : 00;
1DC7 : 00;
1DC8 : ff;
1DC9 : ff;
1DCA : ff;
1DCB : ff;
1DCC : ff;
1DCD : ff;
1DCE : ff;
1DCF : ff;
1DD0 : 84;
1DD1 : 00;
1DD2 : 80;
1DD3 : 01;
1DD4 : a0;
1DD5 : 02;
1DD6 : 45;
1DD7 : 8a;
1DD8 : ff;
1DD9 : ff;
1DDA : ff;
1DDB : ff;
1DDC : ff;
1DDD : ff;
1DDE : ff;
1DDF : ff;
1DE0 : 55;
1DE1 : aa;
1DE2 : d4;
1DE3 : a9;
1DE4 : d2;
1DE5 : fd;
1DE6 : ff;
1DE7 : ff;
1DE8 : ff;
1DE9 : ff;
1DEA : ff;
1DEB : ff;
1DEC : ff;
1DED : ff;
1DEE : ff;
1DEF : ff;
1DF0 : 20;
1DF1 : 02;
1DF2 : 00;
1DF3 : 00;
1DF4 : 08;
1DF5 : 00;
1DF6 : 40;
1DF7 : 00;
1DF8 : 00;
1DF9 : 02;
1DFA : 00;
1DFB : 00;
1DFC : 00;
1DFD : 02;
1DFE : 00;
1DFF : 00;
1E00 : 00;
1E01 : 06;
1E02 : 1f;
1E03 : 1d;
1E04 : 3c;
1E05 : 38;
1E06 : 39;
1E07 : 30;
1E08 : ff;
1E09 : f9;
1E0A : e0;
1E0B : e2;
1E0C : c3;
1E0D : c7;
1E0E : c7;
1E0F : cf;
1E10 : 31;
1E11 : 30;
1E12 : 78;
1E13 : 78;
1E14 : 68;
1E15 : c0;
1E16 : 81;
1E17 : 80;
1E18 : cf;
1E19 : cf;
1E1A : 87;
1E1B : 87;
1E1C : 97;
1E1D : 3f;
1E1E : 7f;
1E1F : 7f;
1E20 : 00;
1E21 : 04;
1E22 : 00;
1E23 : 00;
1E24 : 20;
1E25 : 00;
1E26 : 02;
1E27 : 00;
1E28 : ff;
1E29 : ff;
1E2A : ff;
1E2B : ff;
1E2C : ff;
1E2D : ff;
1E2E : ff;
1E2F : ff;
1E30 : 02;
1E31 : 84;
1E32 : 00;
1E33 : 21;
1E34 : 00;
1E35 : 48;
1E36 : 22;
1E37 : 45;
1E38 : ff;
1E39 : ff;
1E3A : ff;
1E3B : ff;
1E3C : ff;
1E3D : ff;
1E3E : ff;
1E3F : ff;
1E40 : 2a;
1E41 : 55;
1E42 : aa;
1E43 : 75;
1E44 : bb;
1E45 : f7;
1E46 : ff;
1E47 : ff;
1E48 : ff;
1E49 : ff;
1E4A : ff;
1E4B : ff;
1E4C : ff;
1E4D : ff;
1E4E : ff;
1E4F : ff;
1E50 : 02;
1E51 : 40;
1E52 : 01;
1E53 : 00;
1E54 : 00;
1E55 : 00;
1E56 : 80;
1E57 : 08;
1E58 : 00;
1E59 : 40;
1E5A : 01;
1E5B : 10;
1E5C : 00;
1E5D : 00;
1E5E : 00;
1E5F : 00;
1E60 : 00;
1E61 : 10;
1E62 : 00;
1E63 : 80;
1E64 : 44;
1E65 : 80;
1E66 : 40;
1E67 : c0;
1E68 : ff;
1E69 : ff;
1E6A : ff;
1E6B : 7f;
1E6C : ff;
1E6D : ff;
1E6E : ff;
1E6F : ff;
1E70 : 20;
1E71 : 50;
1E72 : 24;
1E73 : 90;
1E74 : 00;
1E75 : 24;
1E76 : 00;
1E77 : 00;
1E78 : ff;
1E79 : ff;
1E7A : ff;
1E7B : ff;
1E7C : ff;
1E7D : ff;
1E7E : ff;
1E7F : ff;
1E80 : 00;
1E81 : 00;
1E82 : 00;
1E83 : 00;
1E84 : 00;
1E85 : 00;
1E86 : 00;
1E87 : 00;
1E88 : ff;
1E89 : ff;
1E8A : ff;
1E8B : ff;
1E8C : ff;
1E8D : ff;
1E8E : ff;
1E8F : ff;
1E90 : 00;
1E91 : 10;
1E92 : 02;
1E93 : 20;
1E94 : 04;
1E95 : 51;
1E96 : 22;
1E97 : 54;
1E98 : ff;
1E99 : ff;
1E9A : ff;
1E9B : ff;
1E9C : ff;
1E9D : ff;
1E9E : ff;
1E9F : ff;
1EA0 : aa;
1EA1 : 55;
1EA2 : aa;
1EA3 : 75;
1EA4 : ba;
1EA5 : fd;
1EA6 : ff;
1EA7 : ff;
1EA8 : ff;
1EA9 : ff;
1EAA : ff;
1EAB : ff;
1EAC : ff;
1EAD : ff;
1EAE : ff;
1EAF : ff;
1EB0 : 00;
1EB1 : 7e;
1EB2 : 7e;
1EB3 : 66;
1EB4 : 66;
1EB5 : 7a;
1EB6 : 7c;
1EB7 : 00;
1EB8 : ff;
1EB9 : c1;
1EBA : a3;
1EBB : 9f;
1EBC : 9f;
1EBD : bb;
1EBE : fd;
1EBF : ff;
1EC0 : 00;
1EC1 : 00;
1EC2 : 00;
1EC3 : 00;
1EC4 : 00;
1EC5 : 00;
1EC6 : 00;
1EC7 : 00;
1EC8 : 00;
1EC9 : 00;
1ECA : 18;
1ECB : 38;
1ECC : 38;
1ECD : 38;
1ECE : 18;
1ECF : 18;
1ED0 : 00;
1ED1 : 00;
1ED2 : 00;
1ED3 : 00;
1ED4 : 00;
1ED5 : 00;
1ED6 : 00;
1ED7 : 00;
1ED8 : 18;
1ED9 : 18;
1EDA : 18;
1EDB : 3c;
1EDC : 3c;
1EDD : 3c;
1EDE : 00;
1EDF : 00;
1EE0 : 00;
1EE1 : 00;
1EE2 : 00;
1EE3 : 00;
1EE4 : 00;
1EE5 : 00;
1EE6 : 00;
1EE7 : 00;
1EE8 : 00;
1EE9 : 00;
1EEA : 3c;
1EEB : 7e;
1EEC : 7e;
1EED : 66;
1EEE : 06;
1EEF : 1e;
1EF0 : 00;
1EF1 : 00;
1EF2 : 00;
1EF3 : 00;
1EF4 : 00;
1EF5 : 00;
1EF6 : 00;
1EF7 : 00;
1EF8 : 3c;
1EF9 : 70;
1EFA : 60;
1EFB : 7e;
1EFC : 7e;
1EFD : 7e;
1EFE : 00;
1EFF : 00;
1F00 : 00;
1F01 : 00;
1F02 : 00;
1F03 : 00;
1F04 : 00;
1F05 : 00;
1F06 : 00;
1F07 : 00;
1F08 : 00;
1F09 : 00;
1F0A : 3c;
1F0B : 7e;
1F0C : 7e;
1F0D : 66;
1F0E : 06;
1F0F : 1c;
1F10 : 00;
1F11 : 00;
1F12 : 00;
1F13 : 00;
1F14 : 00;
1F15 : 00;
1F16 : 00;
1F17 : 00;
1F18 : 1e;
1F19 : 06;
1F1A : 66;
1F1B : 7e;
1F1C : 7e;
1F1D : 3c;
1F1E : 00;
1F1F : 00;
1F20 : 00;
1F21 : 00;
1F22 : 00;
1F23 : 00;
1F24 : 00;
1F25 : 00;
1F26 : 00;
1F27 : 00;
1F28 : 00;
1F29 : 00;
1F2A : 0c;
1F2B : 1c;
1F2C : 3c;
1F2D : 3c;
1F2E : 6c;
1F2F : 6c;
1F30 : 00;
1F31 : 00;
1F32 : 00;
1F33 : 00;
1F34 : 00;
1F35 : 00;
1F36 : 00;
1F37 : 00;
1F38 : 6c;
1F39 : 7e;
1F3A : 7e;
1F3B : 7e;
1F3C : 0c;
1F3D : 0c;
1F3E : 00;
1F3F : 00;
1F40 : 00;
1F41 : 00;
1F42 : 00;
1F43 : 00;
1F44 : 00;
1F45 : 00;
1F46 : 00;
1F47 : 00;
1F48 : 00;
1F49 : 00;
1F4A : 7e;
1F4B : 7e;
1F4C : 7e;
1F4D : 60;
1F4E : 7c;
1F4F : 7e;
1F50 : 00;
1F51 : 00;
1F52 : 00;
1F53 : 00;
1F54 : 00;
1F55 : 00;
1F56 : 00;
1F57 : 00;
1F58 : 06;
1F59 : 06;
1F5A : 66;
1F5B : 7e;
1F5C : 7e;
1F5D : 3c;
1F5E : 00;
1F5F : 00;
1F60 : 00;
1F61 : 00;
1F62 : 00;
1F63 : 00;
1F64 : 00;
1F65 : 00;
1F66 : 00;
1F67 : 00;
1F68 : 00;
1F69 : 00;
1F6A : 3c;
1F6B : 7e;
1F6C : 7e;
1F6D : 66;
1F6E : 60;
1F6F : 7c;
1F70 : 00;
1F71 : 00;
1F72 : 00;
1F73 : 00;
1F74 : 00;
1F75 : 00;
1F76 : 00;
1F77 : 00;
1F78 : 7e;
1F79 : 66;
1F7A : 66;
1F7B : 7e;
1F7C : 7e;
1F7D : 3c;
1F7E : 00;
1F7F : 00;
1F80 : 00;
1F81 : 00;
1F82 : 00;
1F83 : 00;
1F84 : 00;
1F85 : 00;
1F86 : 00;
1F87 : 00;
1F88 : 00;
1F89 : 00;
1F8A : 7e;
1F8B : 7e;
1F8C : 7e;
1F8D : 66;
1F8E : 0e;
1F8F : 0c;
1F90 : 00;
1F91 : 00;
1F92 : 00;
1F93 : 00;
1F94 : 00;
1F95 : 00;
1F96 : 00;
1F97 : 00;
1F98 : 1c;
1F99 : 18;
1F9A : 18;
1F9B : 18;
1F9C : 18;
1F9D : 18;
1F9E : 00;
1F9F : 00;
1FA0 : 00;
1FA1 : 00;
1FA2 : 00;
1FA3 : 00;
1FA4 : 00;
1FA5 : 00;
1FA6 : 00;
1FA7 : 00;
1FA8 : 00;
1FA9 : 00;
1FAA : 3c;
1FAB : 7e;
1FAC : 7e;
1FAD : 66;
1FAE : 66;
1FAF : 3c;
1FB0 : 00;
1FB1 : 00;
1FB2 : 00;
1FB3 : 00;
1FB4 : 00;
1FB5 : 00;
1FB6 : 00;
1FB7 : 00;
1FB8 : 7e;
1FB9 : 66;
1FBA : 66;
1FBB : 7e;
1FBC : 7e;
1FBD : 3c;
1FBE : 00;
1FBF : 00;
1FC0 : 3c;
1FC1 : 42;
1FC2 : 99;
1FC3 : a1;
1FC4 : a1;
1FC5 : 99;
1FC6 : 42;
1FC7 : 3c;
1FC8 : 00;
1FC9 : 00;
1FCA : 00;
1FCB : 00;
1FCC : 00;
1FCD : 00;
1FCE : 00;
1FCF : 00;
1FD0 : ff;
1FD1 : ff;
1FD2 : ff;
1FD3 : ff;
1FD4 : ff;
1FD5 : ff;
1FD6 : ff;
1FD7 : ff;
1FD8 : 00;
1FD9 : 00;
1FDA : 00;
1FDB : 00;
1FDC : 00;
1FDD : 00;
1FDE : 00;
1FDF : 00;
1FE0 : 00;
1FE1 : 00;
1FE2 : 00;
1FE3 : 00;
1FE4 : 00;
1FE5 : 00;
1FE6 : 00;
1FE7 : 00;
1FE8 : ff;
1FE9 : ff;
1FEA : ff;
1FEB : ff;
1FEC : ff;
1FED : ff;
1FEE : ff;
1FEF : ff;
1FF0 : ff;
1FF1 : ff;
1FF2 : ff;
1FF3 : ff;
1FF4 : ff;
1FF5 : ff;
1FF6 : ff;
1FF7 : ff;
1FF8 : ff;
1FF9 : ff;
1FFA : ff;
1FFB : ff;
1FFC : ff;
1FFD : ff;
1FFE : ff;
1FFF : ff;
END;