DEPTH=32768;
WIDTH=8;
ADDRESS_RADIX=HEX;
DATA_RADIX=HEX;
CONTENT
BEGIN
   0 : 01;
   1 : 4c;
   2 : b8;
   3 : e3;
   4 : 94;
   5 : 00;
   6 : ed;
   7 : df;
   8 : 81;
   9 : 00;
   A : 03;
   B : 05;
   C : c6;
   D : c6;
   E : c6;
   F : 04;
  10 : c6;
  11 : 04;
  12 : 04;
  13 : 06;
  14 : 78;
  15 : d8;
  16 : a9;
  17 : 10;
  18 : 8d;
  19 : 00;
  1A : 20;
  1B : a2;
  1C : ff;
  1D : 9a;
  1E : ad;
  1F : 02;
  20 : 20;
  21 : 0a;
  22 : 90;
  23 : fa;
  24 : ad;
  25 : 02;
  26 : 20;
  27 : 0a;
  28 : 90;
  29 : fa;
  2A : a0;
  2B : 07;
  2C : 84;
  2D : 01;
  2E : a0;
  2F : 00;
  30 : 84;
  31 : 00;
  32 : 98;
  33 : a2;
  34 : 5a;
  35 : ec;
  36 : 80;
  37 : 07;
  38 : d0;
  39 : 07;
  3A : ec;
  3B : 81;
  3C : 07;
  3D : d0;
  3E : 02;
  3F : a0;
  40 : ec;
  41 : 91;
  42 : 00;
  43 : 88;
  44 : d0;
  45 : fb;
  46 : c6;
  47 : 01;
  48 : 10;
  49 : f7;
  4A : a9;
  4B : 5a;
  4C : 8d;
  4D : 80;
  4E : 07;
  4F : 8d;
  50 : 81;
  51 : 07;
  52 : 20;
  53 : 5e;
  54 : c0;
  55 : 20;
  56 : 41;
  57 : c1;
  58 : 20;
  59 : ce;
  5A : ca;
  5B : 4c;
  5C : 58;
  5D : c0;
  5E : a9;
  5F : 00;
  60 : 8d;
  61 : 11;
  62 : 40;
  63 : a9;
  64 : 0f;
  65 : 8d;
  66 : 15;
  67 : 40;
  68 : a9;
  69 : 06;
  6A : 8d;
  6B : 01;
  6C : 20;
  6D : 20;
  6E : 83;
  6F : c8;
  70 : 20;
  71 : 9a;
  72 : c8;
  73 : 4c;
  74 : 1d;
  75 : c8;
  76 : 48;
  77 : 8a;
  78 : 48;
  79 : 98;
  7A : 48;
  7B : a5;
  7C : 10;
  7D : a6;
  7E : de;
  7F : f0;
  80 : 02;
  81 : 49;
  82 : 02;
  83 : 29;
  84 : 7f;
  85 : 20;
  86 : 48;
  87 : c1;
  88 : a5;
  89 : 52;
  8A : d0;
  8B : 09;
  8C : a5;
  8D : 11;
  8E : 09;
  8F : 1e;
  90 : 8d;
  91 : 01;
  92 : 20;
  93 : 85;
  94 : 11;
  95 : a9;
  96 : 00;
  97 : 8d;
  98 : 03;
  99 : 20;
  9A : a9;
  9B : 02;
  9C : 8d;
  9D : 14;
  9E : 40;
  9F : a6;
  A0 : 52;
  A1 : 20;
  A2 : 50;
  A3 : c1;
  A4 : 85;
  A5 : 52;
  A6 : 85;
  A7 : de;
  A8 : a9;
  A9 : 3f;
  AA : 8d;
  AB : 06;
  AC : 20;
  AD : a9;
  AE : 00;
  AF : 8d;
  B0 : 06;
  B1 : 20;
  B2 : 8d;
  B3 : 06;
  B4 : 20;
  B5 : 8d;
  B6 : 06;
  B7 : 20;
  B8 : ad;
  B9 : 02;
  BA : 20;
  BB : 20;
  BC : 81;
  BD : cb;
  BE : a5;
  BF : 10;
  C0 : 8d;
  C1 : 00;
  C2 : 20;
  C3 : 20;
  C4 : ed;
  C5 : ca;
  C6 : 20;
  C7 : 1e;
  C8 : f9;
  C9 : a5;
  CA : 53;
  CB : f0;
  CC : 06;
  CD : 20;
  CE : 20;
  CF : c6;
  D0 : 4c;
  D1 : 26;
  D2 : c1;
  D3 : a5;
  D4 : 51;
  D5 : f0;
  D6 : 4f;
  D7 : ae;
  D8 : 4c;
  D9 : 03;
  DA : f0;
  DB : 3e;
  DC : ca;
  DD : f0;
  DE : 24;
  DF : ca;
  E0 : d0;
  E1 : 1e;
  E2 : a5;
  E3 : 11;
  E4 : 29;
  E5 : ef;
  E6 : 8d;
  E7 : 01;
  E8 : 20;
  E9 : 85;
  EA : 11;
  EB : a5;
  EC : 15;
  ED : 29;
  EE : 10;
  EF : f0;
  F0 : 47;
  F1 : a0;
  F2 : 40;
  F3 : 84;
  F4 : fb;
  F5 : a9;
  F6 : 40;
  F7 : 8d;
  F8 : 4d;
  F9 : 03;
  FA : ee;
  FB : 4c;
  FC : 03;
  FD : 4c;
  FE : 38;
  FF : c1;
 100 : ca;
 101 : d0;
 102 : 07;
 103 : ce;
 104 : 4d;
 105 : 03;
 106 : f0;
 107 : f2;
 108 : d0;
 109 : 2e;
 10A : a5;
 10B : 11;
 10C : 09;
 10D : 10;
 10E : 8d;
 10F : 01;
 110 : 20;
 111 : 85;
 112 : 11;
 113 : a9;
 114 : 00;
 115 : 8d;
 116 : 4c;
 117 : 03;
 118 : f0;
 119 : 1e;
 11A : a0;
 11B : 20;
 11C : a5;
 11D : 15;
 11E : 29;
 11F : 10;
 120 : f0;
 121 : 04;
 122 : a5;
 123 : 55;
 124 : d0;
 125 : cd;
 126 : 20;
 127 : 9d;
 128 : cb;
 129 : e6;
 12A : 50;
 12B : a5;
 12C : 51;
 12D : d0;
 12E : 06;
 12F : 20;
 130 : 37;
 131 : c4;
 132 : 4c;
 133 : 38;
 134 : c1;
 135 : 20;
 136 : 4a;
 137 : c4;
 138 : 20;
 139 : 41;
 13A : c1;
 13B : 68;
 13C : a8;
 13D : 68;
 13E : aa;
 13F : 68;
 140 : 40;
 141 : ad;
 142 : 02;
 143 : 20;
 144 : a5;
 145 : 10;
 146 : 09;
 147 : 80;
 148 : 85;
 149 : 10;
 14A : 8d;
 14B : 00;
 14C : 20;
 14D : 60;
 14E : a2;
 14F : 00;
 150 : bd;
 151 : 00;
 152 : c0;
 153 : 85;
 154 : 00;
 155 : bd;
 156 : 0a;
 157 : c0;
 158 : 85;
 159 : 01;
 15A : 20;
 15B : 78;
 15C : cb;
 15D : a9;
 15E : 00;
 15F : 8d;
 160 : 00;
 161 : 03;
 162 : 8d;
 163 : 01;
 164 : 03;
 165 : 60;
 166 : a5;
 167 : 43;
 168 : d0;
 169 : 6c;
 16A : 20;
 16B : 91;
 16C : c8;
 16D : a6;
 16E : 57;
 16F : d0;
 170 : 11;
 171 : a9;
 172 : 80;
 173 : 85;
 174 : fb;
 175 : 20;
 176 : 6d;
 177 : c0;
 178 : a2;
 179 : 00;
 17A : 20;
 17B : fb;
 17C : c6;
 17D : a9;
 17E : 01;
 17F : 4c;
 180 : 18;
 181 : c2;
 182 : ca;
 183 : d0;
 184 : 04;
 185 : a9;
 186 : 05;
 187 : d0;
 188 : f6;
 189 : ca;
 18A : d0;
 18B : 0f;
 18C : a9;
 18D : f9;
 18E : 85;
 18F : 00;
 190 : 20;
 191 : 4c;
 192 : ca;
 193 : a9;
 194 : f1;
 195 : 20;
 196 : e0;
 197 : c8;
 198 : 4c;
 199 : 1a;
 19A : c2;
 19B : a9;
 19C : 00;
 19D : 85;
 19E : 56;
 19F : 85;
 1A0 : 57;
 1A1 : 8d;
 1A2 : fa;
 1A3 : 03;
 1A4 : 8d;
 1A5 : fb;
 1A6 : 03;
 1A7 : 85;
 1A8 : 13;
 1A9 : 85;
 1AA : 22;
 1AB : 85;
 1AC : 23;
 1AD : a2;
 1AE : 09;
 1AF : 9d;
 1B0 : 60;
 1B1 : 03;
 1B2 : ca;
 1B3 : 10;
 1B4 : fa;
 1B5 : 85;
 1B6 : 4d;
 1B7 : 20;
 1B8 : e0;
 1B9 : c8;
 1BA : 20;
 1BB : c0;
 1BC : c4;
 1BD : a5;
 1BE : 54;
 1BF : d0;
 1C0 : 0f;
 1C1 : a9;
 1C2 : 03;
 1C3 : 85;
 1C4 : 54;
 1C5 : a9;
 1C6 : 58;
 1C7 : 85;
 1C8 : 4d;
 1C9 : a9;
 1CA : 09;
 1CB : 85;
 1CC : 31;
 1CD : 4a;
 1CE : 85;
 1CF : fb;
 1D0 : a9;
 1D1 : 80;
 1D2 : 85;
 1D3 : 4e;
 1D4 : e6;
 1D5 : 51;
 1D6 : 60;
 1D7 : 20;
 1D8 : 91;
 1D9 : c8;
 1DA : a5;
 1DB : 57;
 1DC : d0;
 1DD : 12;
 1DE : 20;
 1DF : 70;
 1E0 : c0;
 1E1 : a5;
 1E2 : 10;
 1E3 : 29;
 1E4 : fd;
 1E5 : 85;
 1E6 : 10;
 1E7 : a9;
 1E8 : 9f;
 1E9 : 85;
 1EA : 13;
 1EB : a9;
 1EC : 04;
 1ED : 4c;
 1EE : 18;
 1EF : c2;
 1F0 : c9;
 1F1 : 01;
 1F2 : f0;
 1F3 : 26;
 1F4 : c9;
 1F5 : 02;
 1F6 : d0;
 1F7 : 25;
 1F8 : a9;
 1F9 : 00;
 1FA : 85;
 1FB : 7c;
 1FC : a2;
 1FD : 77;
 1FE : 95;
 1FF : 78;
 200 : e0;
 201 : 01;
 202 : 90;
 203 : 03;
 204 : 9d;
 205 : 80;
 206 : 03;
 207 : ca;
 208 : 10;
 209 : f4;
 20A : 20;
 20B : a7;
 20C : c5;
 20D : a9;
 20E : 01;
 20F : 85;
 210 : da;
 211 : a9;
 212 : 04;
 213 : 85;
 214 : 90;
 215 : 4a;
 216 : 85;
 217 : db;
 218 : 85;
 219 : 52;
 21A : e6;
 21B : 57;
 21C : 60;
 21D : c9;
 21E : 03;
 21F : d0;
 220 : 1a;
 221 : 20;
 222 : 9d;
 223 : e7;
 224 : 20;
 225 : c2;
 226 : e4;
 227 : 20;
 228 : 42;
 229 : c5;
 22A : 20;
 22B : d7;
 22C : c4;
 22D : 20;
 22E : ab;
 22F : df;
 230 : 20;
 231 : 16;
 232 : dd;
 233 : 20;
 234 : 1d;
 235 : dd;
 236 : e6;
 237 : 57;
 238 : 4c;
 239 : 5e;
 23A : e0;
 23B : a9;
 23C : 00;
 23D : a0;
 23E : 90;
 23F : 99;
 240 : 5f;
 241 : 00;
 242 : 88;
 243 : d0;
 244 : fa;
 245 : a9;
 246 : 04;
 247 : 85;
 248 : 90;
 249 : a9;
 24A : 38;
 24B : 85;
 24C : 64;
 24D : a9;
 24E : b8;
 24F : 85;
 250 : 65;
 251 : a2;
 252 : 01;
 253 : a9;
 254 : 00;
 255 : 95;
 256 : 5a;
 257 : 95;
 258 : 6a;
 259 : b5;
 25A : 20;
 25B : 30;
 25C : 17;
 25D : a9;
 25E : 01;
 25F : 8d;
 260 : 7a;
 261 : 03;
 262 : 85;
 263 : 62;
 264 : 95;
 265 : 5a;
 266 : 95;
 267 : 6a;
 268 : 4a;
 269 : 95;
 26A : 2f;
 26B : 8d;
 26C : 3f;
 26D : 06;
 26E : 95;
 26F : 2d;
 270 : a9;
 271 : c0;
 272 : 95;
 273 : 66;
 274 : ca;
 275 : 10;
 276 : dc;
 277 : a2;
 278 : 02;
 279 : 20;
 27A : 9e;
 27B : f1;
 27C : ca;
 27D : 10;
 27E : fa;
 27F : a9;
 280 : 05;
 281 : 85;
 282 : 8b;
 283 : a9;
 284 : 80;
 285 : 85;
 286 : 3d;
 287 : a9;
 288 : 01;
 289 : 85;
 28A : 2c;
 28B : a9;
 28C : 1a;
 28D : 85;
 28E : 4a;
 28F : a9;
 290 : 21;
 291 : 85;
 292 : 4b;
 293 : a9;
 294 : 22;
 295 : 85;
 296 : 39;
 297 : 20;
 298 : 0c;
 299 : f8;
 29A : a6;
 29B : 55;
 29C : e0;
 29D : 01;
 29E : d0;
 29F : 0b;
 2A0 : a9;
 2A1 : 02;
 2A2 : 85;
 2A3 : fb;
 2A4 : 20;
 2A5 : 02;
 2A6 : e0;
 2A7 : a9;
 2A8 : 01;
 2A9 : 85;
 2AA : 8d;
 2AB : e6;
 2AC : 57;
 2AD : e6;
 2AE : 51;
 2AF : 60;
 2B0 : 20;
 2B1 : 91;
 2B2 : c8;
 2B3 : a6;
 2B4 : 57;
 2B5 : d0;
 2B6 : 0d;
 2B7 : 20;
 2B8 : 6d;
 2B9 : c0;
 2BA : a2;
 2BB : 01;
 2BC : 20;
 2BD : fb;
 2BE : c6;
 2BF : a9;
 2C0 : 07;
 2C1 : 4c;
 2C2 : 18;
 2C3 : c2;
 2C4 : ca;
 2C5 : d0;
 2C6 : 07;
 2C7 : 20;
 2C8 : 24;
 2C9 : f5;
 2CA : a9;
 2CB : 05;
 2CC : d0;
 2CD : f3;
 2CE : ca;
 2CF : d0;
 2D0 : 08;
 2D1 : a5;
 2D2 : 58;
 2D3 : f0;
 2D4 : 04;
 2D5 : a9;
 2D6 : 08;
 2D7 : d0;
 2D8 : e8;
 2D9 : 20;
 2DA : 86;
 2DB : f5;
 2DC : a9;
 2DD : 00;
 2DE : 85;
 2DF : 84;
 2E0 : a9;
 2E1 : 10;
 2E2 : 85;
 2E3 : 37;
 2E4 : 85;
 2E5 : 38;
 2E6 : a9;
 2E7 : 68;
 2E8 : 85;
 2E9 : 34;
 2EA : 4c;
 2EB : ab;
 2EC : c2;
 2ED : a6;
 2EE : 57;
 2EF : d0;
 2F0 : 33;
 2F1 : 20;
 2F2 : 1d;
 2F3 : c8;
 2F4 : a9;
 2F5 : 01;
 2F6 : 85;
 2F7 : 27;
 2F8 : 4a;
 2F9 : 8d;
 2FA : fb;
 2FB : 05;
 2FC : a2;
 2FD : 07;
 2FE : 9d;
 2FF : f8;
 300 : 07;
 301 : ca;
 302 : 10;
 303 : fa;
 304 : a9;
 305 : 40;
 306 : 8d;
 307 : fa;
 308 : 07;
 309 : 8d;
 30A : fe;
 30B : 07;
 30C : a6;
 30D : 58;
 30E : b5;
 30F : 6a;
 310 : c9;
 311 : 07;
 312 : d0;
 313 : 06;
 314 : b5;
 315 : 5a;
 316 : f0;
 317 : 02;
 318 : d6;
 319 : 20;
 31A : ca;
 31B : 10;
 31C : f1;
 31D : a9;
 31E : 06;
 31F : 85;
 320 : 7a;
 321 : 4c;
 322 : 18;
 323 : c2;
 324 : ca;
 325 : d0;
 326 : 22;
 327 : c6;
 328 : 13;
 329 : c6;
 32A : 13;
 32B : a6;
 32C : 26;
 32D : e0;
 32E : 02;
 32F : d0;
 330 : 07;
 331 : a2;
 332 : 00;
 333 : 20;
 334 : 8d;
 335 : c3;
 336 : a2;
 337 : 01;
 338 : 20;
 339 : 8d;
 33A : c3;
 33B : 20;
 33C : bf;
 33D : ec;
 33E : a5;
 33F : 13;
 340 : c9;
 341 : 20;
 342 : b0;
 343 : 48;
 344 : a9;
 345 : 03;
 346 : 4c;
 347 : 18;
 348 : c2;
 349 : ca;
 34A : d0;
 34B : 07;
 34C : e6;
 34D : 57;
 34E : a2;
 34F : 0a;
 350 : 4c;
 351 : 91;
 352 : f6;
 353 : a9;
 354 : 00;
 355 : 85;
 356 : 6a;
 357 : 85;
 358 : 6b;
 359 : 85;
 35A : 5a;
 35B : 85;
 35C : 5b;
 35D : 8d;
 35E : 52;
 35F : 03;
 360 : 8d;
 361 : 53;
 362 : 03;
 363 : a6;
 364 : 26;
 365 : e0;
 366 : 02;
 367 : d0;
 368 : 07;
 369 : a2;
 36A : 00;
 36B : 20;
 36C : 99;
 36D : c3;
 36E : a2;
 36F : 01;
 370 : 20;
 371 : 99;
 372 : c3;
 373 : a9;
 374 : 15;
 375 : 85;
 376 : d7;
 377 : a9;
 378 : 00;
 379 : 85;
 37A : d5;
 37B : 85;
 37C : d4;
 37D : 20;
 37E : 0f;
 37F : f6;
 380 : 20;
 381 : f2;
 382 : f6;
 383 : 20;
 384 : 62;
 385 : e5;
 386 : a9;
 387 : 04;
 388 : 85;
 389 : fb;
 38A : e6;
 38B : 51;
 38C : 60;
 38D : f6;
 38E : 66;
 38F : f6;
 390 : 66;
 391 : a9;
 392 : 00;
 393 : 95;
 394 : 70;
 395 : 95;
 396 : 6c;
 397 : f0;
 398 : 06;
 399 : a9;
 39A : 01;
 39B : 95;
 39C : 6a;
 39D : 95;
 39E : 5a;
 39F : 86;
 3A0 : 5f;
 3A1 : 4c;
 3A2 : ff;
 3A3 : cd;
 3A4 : a5;
 3A5 : 57;
 3A6 : c9;
 3A7 : 06;
 3A8 : f0;
 3A9 : 22;
 3AA : 20;
 3AB : d7;
 3AC : c1;
 3AD : a5;
 3AE : 57;
 3AF : c9;
 3B0 : 05;
 3B1 : d0;
 3B2 : 18;
 3B3 : a5;
 3B4 : 53;
 3B5 : d0;
 3B6 : 0a;
 3B7 : a9;
 3B8 : 00;
 3B9 : a2;
 3BA : 0e;
 3BB : 9d;
 3BC : f0;
 3BD : 07;
 3BE : ca;
 3BF : 10;
 3C0 : fa;
 3C1 : 20;
 3C2 : 1d;
 3C3 : c8;
 3C4 : 20;
 3C5 : 0f;
 3C6 : f6;
 3C7 : e6;
 3C8 : 57;
 3C9 : c6;
 3CA : 51;
 3CB : 60;
 3CC : a2;
 3CD : 0a;
 3CE : 20;
 3CF : 91;
 3D0 : f6;
 3D1 : a9;
 3D2 : 70;
 3D3 : 85;
 3D4 : d6;
 3D5 : 0a;
 3D6 : 85;
 3D7 : d7;
 3D8 : a9;
 3D9 : 00;
 3DA : 85;
 3DB : d4;
 3DC : 85;
 3DD : d5;
 3DE : a9;
 3DF : 04;
 3E0 : 85;
 3E1 : 1f;
 3E2 : 4a;
 3E3 : 85;
 3E4 : 7a;
 3E5 : 4c;
 3E6 : a7;
 3E7 : c2;
 3E8 : a5;
 3E9 : d7;
 3EA : c9;
 3EB : 1d;
 3EC : 90;
 3ED : 35;
 3EE : c9;
 3EF : 80;
 3F0 : d0;
 3F1 : 27;
 3F2 : c6;
 3F3 : 13;
 3F4 : c6;
 3F5 : 13;
 3F6 : 20;
 3F7 : ea;
 3F8 : d8;
 3F9 : a5;
 3FA : 13;
 3FB : c9;
 3FC : 02;
 3FD : b0;
 3FE : 0c;
 3FF : a6;
 400 : 7a;
 401 : f0;
 402 : 16;
 403 : a9;
 404 : 03;
 405 : ca;
 406 : f0;
 407 : 01;
 408 : 0a;
 409 : 85;
 40A : 52;
 40B : c6;
 40C : 1f;
 40D : d0;
 40E : 07;
 40F : a9;
 410 : 04;
 411 : 85;
 412 : 1f;
 413 : 20;
 414 : ec;
 415 : f2;
 416 : 4c;
 417 : 1d;
 418 : c4;
 419 : c6;
 41A : d7;
 41B : c6;
 41C : d7;
 41D : 20;
 41E : 37;
 41F : f7;
 420 : 4c;
 421 : 7e;
 422 : f6;
 423 : a5;
 424 : 46;
 425 : d0;
 426 : 04;
 427 : a9;
 428 : 10;
 429 : 85;
 42A : 46;
 42B : c9;
 42C : 01;
 42D : d0;
 42E : 07;
 42F : a9;
 430 : 01;
 431 : 20;
 432 : f5;
 433 : d4;
 434 : c6;
 435 : 54;
 436 : 60;
 437 : a5;
 438 : 34;
 439 : d0;
 43A : fb;
 43B : 20;
 43C : 26;
 43D : c7;
 43E : 66;
 43F : c1;
 440 : d7;
 441 : c1;
 442 : ed;
 443 : c2;
 444 : ad;
 445 : c2;
 446 : b0;
 447 : c2;
 448 : a4;
 449 : c3;
 44A : a9;
 44B : 00;
 44C : 85;
 44D : 57;
 44E : 20;
 44F : 26;
 450 : c7;
 451 : 60;
 452 : c4;
 453 : fb;
 454 : cb;
 455 : 9e;
 456 : cc;
 457 : 67;
 458 : cc;
 459 : 6c;
 45A : cc;
 45B : e8;
 45C : c3;
 45D : 6f;
 45E : 00;
 45F : 38;
 460 : a5;
 461 : 59;
 462 : 29;
 463 : 1f;
 464 : 85;
 465 : 59;
 466 : 20;
 467 : 3e;
 468 : f5;
 469 : a5;
 46A : 4e;
 46B : d0;
 46C : 17;
 46D : 8d;
 46E : 15;
 46F : 40;
 470 : 85;
 471 : 58;
 472 : a5;
 473 : 59;
 474 : 8d;
 475 : fe;
 476 : 03;
 477 : ad;
 478 : fd;
 479 : 03;
 47A : 29;
 47B : 03;
 47C : 85;
 47D : 59;
 47E : a9;
 47F : 01;
 480 : 85;
 481 : 53;
 482 : d0;
 483 : 20;
 484 : a5;
 485 : 4d;
 486 : c9;
 487 : 01;
 488 : d0;
 489 : 06;
 48A : 4a;
 48B : 85;
 48C : 4d;
 48D : 6a;
 48E : 85;
 48F : fb;
 490 : a5;
 491 : 15;
 492 : 29;
 493 : 20;
 494 : f0;
 495 : 08;
 496 : 20;
 497 : ba;
 498 : c4;
 499 : a9;
 49A : 80;
 49B : 85;
 49C : 4e;
 49D : 60;
 49E : a5;
 49F : 15;
 4A0 : 29;
 4A1 : 10;
 4A2 : f0;
 4A3 : 15;
 4A4 : a9;
 4A5 : 05;
 4A6 : 20;
 4A7 : f5;
 4A8 : d4;
 4A9 : a9;
 4AA : 01;
 4AB : 85;
 4AC : fb;
 4AD : a9;
 4AE : 03;
 4AF : 85;
 4B0 : 20;
 4B1 : a4;
 4B2 : 58;
 4B3 : d0;
 4B4 : 02;
 4B5 : a9;
 4B6 : fc;
 4B7 : 85;
 4B8 : 21;
 4B9 : 60;
 4BA : a5;
 4BB : 58;
 4BC : 49;
 4BD : 01;
 4BE : 85;
 4BF : 58;
 4C0 : a9;
 4C1 : 7f;
 4C2 : a4;
 4C3 : 58;
 4C4 : f0;
 4C5 : 02;
 4C6 : a9;
 4C7 : 8f;
 4C8 : 8d;
 4C9 : 00;
 4CA : 02;
 4CB : a2;
 4CC : 02;
 4CD : bd;
 4CE : 5d;
 4CF : c4;
 4D0 : 9d;
 4D1 : 01;
 4D2 : 02;
 4D3 : ca;
 4D4 : 10;
 4D5 : f7;
 4D6 : 60;
 4D7 : a0;
 4D8 : 17;
 4D9 : a9;
 4DA : 00;
 4DB : 99;
 4DC : c0;
 4DD : 04;
 4DE : a9;
 4DF : ff;
 4E0 : 99;
 4E1 : c0;
 4E2 : 05;
 4E3 : 88;
 4E4 : 10;
 4E5 : f3;
 4E6 : a0;
 4E7 : 01;
 4E8 : 99;
 4E9 : c3;
 4EA : 04;
 4EB : 99;
 4EC : cb;
 4ED : 04;
 4EE : 99;
 4EF : d3;
 4F0 : 04;
 4F1 : 88;
 4F2 : 10;
 4F3 : f4;
 4F4 : a2;
 4F5 : 00;
 4F6 : a9;
 4F7 : 00;
 4F8 : 9d;
 4F9 : 30;
 4FA : 04;
 4FB : 9d;
 4FC : 47;
 4FD : 04;
 4FE : e0;
 4FF : 48;
 500 : 90;
 501 : 06;
 502 : 9d;
 503 : 31;
 504 : 04;
 505 : 9d;
 506 : 46;
 507 : 04;
 508 : 8a;
 509 : 18;
 50A : 69;
 50B : 18;
 50C : aa;
 50D : e0;
 50E : 90;
 50F : 90;
 510 : e5;
 511 : 60;
 512 : 00;
 513 : 00;
 514 : 00;
 515 : ff;
 516 : ff;
 517 : ff;
 518 : f3;
 519 : e7;
 51A : cf;
 51B : 33;
 51C : 33;
 51D : 33;
 51E : 0f;
 51F : 0f;
 520 : 0f;
 521 : 33;
 522 : 00;
 523 : cc;
 524 : ff;
 525 : 0f;
 526 : ff;
 527 : c3;
 528 : fc;
 529 : 3f;
 52A : f0;
 52B : f0;
 52C : f0;
 52D : f0;
 52E : 00;
 52F : 0f;
 530 : cf;
 531 : cf;
 532 : 3f;
 533 : f0;
 534 : 00;
 535 : ff;
 536 : cc;
 537 : cc;
 538 : cc;
 539 : f3;
 53A : 33;
 53B : 00;
 53C : fc;
 53D : fc;
 53E : ff;
 53F : fc;
 540 : 00;
 541 : 3f;
 542 : 20;
 543 : 2b;
 544 : e7;
 545 : a9;
 546 : bf;
 547 : 85;
 548 : 0c;
 549 : a9;
 54A : 00;
 54B : 85;
 54C : 0d;
 54D : a9;
 54E : 04;
 54F : 85;
 550 : 0e;
 551 : a2;
 552 : 07;
 553 : b5;
 554 : 04;
 555 : 0a;
 556 : 18;
 557 : 75;
 558 : 04;
 559 : a8;
 55A : b9;
 55B : 12;
 55C : c5;
 55D : 85;
 55E : 00;
 55F : b9;
 560 : 13;
 561 : c5;
 562 : 85;
 563 : 01;
 564 : b9;
 565 : 14;
 566 : c5;
 567 : 85;
 568 : 02;
 569 : a4;
 56A : 0c;
 56B : a9;
 56C : 01;
 56D : 85;
 56E : 1f;
 56F : 20;
 570 : d3;
 571 : c5;
 572 : 84;
 573 : 0c;
 574 : ca;
 575 : 10;
 576 : dc;
 577 : a2;
 578 : c0;
 579 : a9;
 57A : 00;
 57B : 0e;
 57C : 85;
 57D : 07;
 57E : b0;
 57F : 02;
 580 : a9;
 581 : 01;
 582 : 85;
 583 : 00;
 584 : a0;
 585 : 18;
 586 : bd;
 587 : ff;
 588 : 03;
 589 : 30;
 58A : 07;
 58B : a5;
 58C : 00;
 58D : 9d;
 58E : ff;
 58F : 03;
 590 : d0;
 591 : 05;
 592 : a9;
 593 : ff;
 594 : 9d;
 595 : ff;
 596 : 04;
 597 : ca;
 598 : f0;
 599 : 38;
 59A : 88;
 59B : d0;
 59C : e9;
 59D : f0;
 59E : da;
 59F : f0;
 5A0 : 0f;
 5A1 : e7;
 5A2 : 3c;
 5A3 : fc;
 5A4 : 3f;
 5A5 : cf;
 5A6 : e3;
 5A7 : a0;
 5A8 : d7;
 5A9 : 98;
 5AA : 48;
 5AB : 20;
 5AC : ce;
 5AD : ca;
 5AE : a2;
 5AF : 02;
 5B0 : b5;
 5B1 : 18;
 5B2 : 29;
 5B3 : 07;
 5B4 : a8;
 5B5 : b9;
 5B6 : 9f;
 5B7 : c5;
 5B8 : 95;
 5B9 : 00;
 5BA : ca;
 5BB : 10;
 5BC : f3;
 5BD : 68;
 5BE : a8;
 5BF : a9;
 5C0 : 00;
 5C1 : 85;
 5C2 : 0d;
 5C3 : a9;
 5C4 : 05;
 5C5 : 85;
 5C6 : 0e;
 5C7 : a9;
 5C8 : 00;
 5C9 : 85;
 5CA : 1f;
 5CB : 20;
 5CC : d3;
 5CD : c5;
 5CE : c0;
 5CF : ff;
 5D0 : d0;
 5D1 : d7;
 5D2 : 60;
 5D3 : a9;
 5D4 : 00;
 5D5 : 85;
 5D6 : 0f;
 5D7 : a9;
 5D8 : 18;
 5D9 : 85;
 5DA : 03;
 5DB : 46;
 5DC : 00;
 5DD : 66;
 5DE : 01;
 5DF : 66;
 5E0 : 02;
 5E1 : 08;
 5E2 : a5;
 5E3 : 1f;
 5E4 : d0;
 5E5 : 07;
 5E6 : a5;
 5E7 : 0f;
 5E8 : f0;
 5E9 : 05;
 5EA : a9;
 5EB : 01;
 5EC : 2c;
 5ED : a9;
 5EE : 00;
 5EF : 2a;
 5F0 : f0;
 5F1 : 0a;
 5F2 : c9;
 5F3 : 03;
 5F4 : b0;
 5F5 : 03;
 5F6 : a9;
 5F7 : 02;
 5F8 : 2c;
 5F9 : a9;
 5FA : 01;
 5FB : 2c;
 5FC : a9;
 5FD : ff;
 5FE : 91;
 5FF : 0d;
 600 : 28;
 601 : b0;
 602 : 05;
 603 : a9;
 604 : 00;
 605 : 85;
 606 : 0f;
 607 : 2c;
 608 : e6;
 609 : 0f;
 60A : 88;
 60B : c6;
 60C : 03;
 60D : d0;
 60E : cc;
 60F : 60;
 610 : 11;
 611 : 22;
 612 : 11;
 613 : 38;
 614 : 29;
 615 : 28;
 616 : 19;
 617 : 21;
 618 : 1a;
 619 : 28;
 61A : 2a;
 61B : 12;
 61C : 2a;
 61D : 22;
 61E : 14;
 61F : 12;
 620 : a5;
 621 : 14;
 622 : 29;
 623 : 30;
 624 : f0;
 625 : 14;
 626 : ad;
 627 : fe;
 628 : 03;
 629 : 85;
 62A : 59;
 62B : a9;
 62C : 0f;
 62D : 8d;
 62E : 15;
 62F : 40;
 630 : a9;
 631 : 00;
 632 : 85;
 633 : 53;
 634 : ee;
 635 : fd;
 636 : 03;
 637 : 4c;
 638 : f5;
 639 : d4;
 63A : a5;
 63B : 55;
 63C : c9;
 63D : 01;
 63E : d0;
 63F : cf;
 640 : a5;
 641 : 51;
 642 : f0;
 643 : cb;
 644 : a5;
 645 : 66;
 646 : c9;
 647 : d4;
 648 : b0;
 649 : dc;
 64A : ad;
 64B : fa;
 64C : 03;
 64D : 29;
 64E : 0f;
 64F : aa;
 650 : bd;
 651 : 10;
 652 : c6;
 653 : bc;
 654 : 0f;
 655 : c6;
 656 : ae;
 657 : fb;
 658 : 03;
 659 : d0;
 65A : 09;
 65B : a8;
 65C : 29;
 65D : f0;
 65E : 8d;
 65F : fb;
 660 : 03;
 661 : ee;
 662 : fa;
 663 : 03;
 664 : 98;
 665 : 29;
 666 : 0f;
 667 : 85;
 668 : 14;
 669 : 98;
 66A : 0a;
 66B : 0a;
 66C : 0a;
 66D : 0a;
 66E : 05;
 66F : 14;
 670 : 29;
 671 : c3;
 672 : 85;
 673 : 14;
 674 : 85;
 675 : 15;
 676 : a5;
 677 : 50;
 678 : 29;
 679 : 01;
 67A : d0;
 67B : 03;
 67C : ce;
 67D : fb;
 67E : 03;
 67F : 60;
 680 : 22;
 681 : cd;
 682 : 05;
 683 : 00;
 684 : 23;
 685 : 06;
 686 : 05;
 687 : 00;
 688 : 23;
 689 : 14;
 68A : 05;
 68B : 00;
 68C : 28;
 68D : c3;
 68E : 04;
 68F : 00;
 690 : 20;
 691 : c3;
 692 : 04;
 693 : 00;
 694 : 3f;
 695 : 00;
 696 : 20;
 697 : 0f;
 698 : 30;
 699 : 21;
 69A : 01;
 69B : 0f;
 69C : 26;
 69D : 2a;
 69E : 30;
 69F : 0f;
 6A0 : 38;
 6A1 : 29;
 6A2 : 0a;
 6A3 : 0f;
 6A4 : 27;
 6A5 : 17;
 6A6 : 07;
 6A7 : 0f;
 6A8 : 30;
 6A9 : 11;
 6AA : 26;
 6AB : 0f;
 6AC : 30;
 6AD : 15;
 6AE : 26;
 6AF : 0f;
 6B0 : 30;
 6B1 : 21;
 6B2 : 12;
 6B3 : 0f;
 6B4 : 38;
 6B5 : 29;
 6B6 : 0a;
 6B7 : 00;
 6B8 : 23;
 6B9 : e8;
 6BA : 58;
 6BB : ff;
 6BC : 23;
 6BD : e0;
 6BE : 02;
 6BF : f0;
 6C0 : 30;
 6C1 : 23;
 6C2 : e6;
 6C3 : 02;
 6C4 : c0;
 6C5 : f0;
 6C6 : 2b;
 6C7 : c0;
 6C8 : 48;
 6C9 : ff;
 6CA : 2b;
 6CB : c8;
 6CC : 48;
 6CD : af;
 6CE : 2b;
 6CF : d0;
 6D0 : 50;
 6D1 : aa;
 6D2 : 2b;
 6D3 : e0;
 6D4 : 48;
 6D5 : 0a;
 6D6 : 2b;
 6D7 : c9;
 6D8 : 46;
 6D9 : ff;
 6DA : 2a;
 6DB : 40;
 6DC : 60;
 6DD : 31;
 6DE : 2a;
 6DF : 60;
 6E0 : 7f;
 6E1 : 32;
 6E2 : 00;
 6E3 : 23;
 6E4 : e0;
 6E5 : 60;
 6E6 : 00;
 6E7 : 23;
 6E8 : c8;
 6E9 : 02;
 6EA : 44;
 6EB : 55;
 6EC : 00;
 6ED : 2b;
 6EE : c0;
 6EF : 71;
 6F0 : 00;
 6F1 : 2b;
 6F2 : c8;
 6F3 : 02;
 6F4 : 44;
 6F5 : 55;
 6F6 : 00;
 6F7 : a0;
 6F8 : 04;
 6F9 : 10;
 6FA : 12;
 6FB : 20;
 6FC : 91;
 6FD : c8;
 6FE : bd;
 6FF : f9;
 700 : c6;
 701 : 8d;
 702 : 06;
 703 : 20;
 704 : bd;
 705 : f7;
 706 : c6;
 707 : 8d;
 708 : 06;
 709 : 20;
 70A : ad;
 70B : 07;
 70C : 20;
 70D : a9;
 70E : 00;
 70F : 85;
 710 : 00;
 711 : a8;
 712 : a9;
 713 : 04;
 714 : 85;
 715 : 01;
 716 : a2;
 717 : 02;
 718 : ad;
 719 : 07;
 71A : 20;
 71B : 91;
 71C : 00;
 71D : c8;
 71E : d0;
 71F : f8;
 720 : e6;
 721 : 01;
 722 : ca;
 723 : d0;
 724 : f3;
 725 : 60;
 726 : a5;
 727 : 55;
 728 : 0a;
 729 : a8;
 72A : 68;
 72B : 85;
 72C : 00;
 72D : 68;
 72E : 85;
 72F : 01;
 730 : c8;
 731 : b1;
 732 : 00;
 733 : 85;
 734 : 02;
 735 : c8;
 736 : b1;
 737 : 00;
 738 : 85;
 739 : 03;
 73A : 6c;
 73B : 02;
 73C : 00;
 73D : 85;
 73E : 03;
 73F : 8a;
 740 : 48;
 741 : 98;
 742 : 48;
 743 : a9;
 744 : 02;
 745 : 85;
 746 : 05;
 747 : a9;
 748 : 0f;
 749 : 25;
 74A : 03;
 74B : 85;
 74C : 07;
 74D : a5;
 74E : 03;
 74F : 4a;
 750 : 4a;
 751 : 4a;
 752 : 4a;
 753 : 85;
 754 : 06;
 755 : aa;
 756 : a9;
 757 : 00;
 758 : 18;
 759 : 65;
 75A : 07;
 75B : ca;
 75C : d0;
 75D : fb;
 75E : 85;
 75F : 08;
 760 : aa;
 761 : a5;
 762 : 0e;
 763 : f0;
 764 : 0a;
 765 : 20;
 766 : 77;
 767 : c7;
 768 : a5;
 769 : 0f;
 76A : f0;
 76B : 03;
 76C : 20;
 76D : c1;
 76E : c7;
 76F : 20;
 770 : f5;
 771 : c7;
 772 : 68;
 773 : a8;
 774 : 68;
 775 : aa;
 776 : 60;
 777 : a5;
 778 : 02;
 779 : a0;
 77A : 01;
 77B : 91;
 77C : 04;
 77D : 18;
 77E : 69;
 77F : 01;
 780 : c8;
 781 : 48;
 782 : b1;
 783 : 04;
 784 : 29;
 785 : 3f;
 786 : 91;
 787 : 04;
 788 : 8a;
 789 : 48;
 78A : a5;
 78B : 0d;
 78C : 29;
 78D : 03;
 78E : a6;
 78F : 09;
 790 : e0;
 791 : 03;
 792 : 30;
 793 : 11;
 794 : e0;
 795 : 18;
 796 : b0;
 797 : 0d;
 798 : a6;
 799 : 55;
 79A : ca;
 79B : d0;
 79C : 08;
 79D : a6;
 79E : 09;
 79F : e0;
 7A0 : 03;
 7A1 : f0;
 7A2 : 02;
 7A3 : 09;
 7A4 : 20;
 7A5 : 91;
 7A6 : 04;
 7A7 : 68;
 7A8 : aa;
 7A9 : 46;
 7AA : 0a;
 7AB : 66;
 7AC : 0b;
 7AD : 66;
 7AE : 0c;
 7AF : 66;
 7B0 : 0d;
 7B1 : 46;
 7B2 : 0a;
 7B3 : 66;
 7B4 : 0b;
 7B5 : 66;
 7B6 : 0c;
 7B7 : 66;
 7B8 : 0d;
 7B9 : 68;
 7BA : c8;
 7BB : c8;
 7BC : c8;
 7BD : ca;
 7BE : d0;
 7BF : bb;
 7C0 : 60;
 7C1 : a0;
 7C2 : 01;
 7C3 : 84;
 7C4 : 0a;
 7C5 : a5;
 7C6 : 08;
 7C7 : 38;
 7C8 : e5;
 7C9 : 06;
 7CA : a8;
 7CB : 85;
 7CC : 0b;
 7CD : a6;
 7CE : 06;
 7CF : 98;
 7D0 : 48;
 7D1 : 18;
 7D2 : 98;
 7D3 : 65;
 7D4 : 02;
 7D5 : a4;
 7D6 : 0a;
 7D7 : 91;
 7D8 : 04;
 7D9 : c8;
 7DA : b1;
 7DB : 04;
 7DC : 29;
 7DD : 3f;
 7DE : 49;
 7DF : 40;
 7E0 : 91;
 7E1 : 04;
 7E2 : c8;
 7E3 : c8;
 7E4 : c8;
 7E5 : 84;
 7E6 : 0a;
 7E7 : 68;
 7E8 : a8;
 7E9 : c8;
 7EA : ca;
 7EB : d0;
 7EC : e2;
 7ED : a5;
 7EE : 0b;
 7EF : 38;
 7F0 : e5;
 7F1 : 06;
 7F2 : 10;
 7F3 : d6;
 7F4 : 60;
 7F5 : a0;
 7F6 : 00;
 7F7 : a6;
 7F8 : 06;
 7F9 : a5;
 7FA : 01;
 7FB : 85;
 7FC : 09;
 7FD : a5;
 7FE : 09;
 7FF : 91;
 800 : 04;
 801 : 18;
 802 : 69;
 803 : 08;
 804 : 85;
 805 : 09;
 806 : c8;
 807 : c8;
 808 : c8;
 809 : a5;
 80A : 00;
 80B : 91;
 80C : 04;
 80D : c8;
 80E : ca;
 80F : d0;
 810 : ec;
 811 : a5;
 812 : 00;
 813 : 18;
 814 : 69;
 815 : 08;
 816 : 85;
 817 : 00;
 818 : c6;
 819 : 07;
 81A : d0;
 81B : db;
 81C : 60;
 81D : a2;
 81E : 40;
 81F : a9;
 820 : 00;
 821 : 85;
 822 : 04;
 823 : a9;
 824 : 02;
 825 : 85;
 826 : 05;
 827 : a0;
 828 : 00;
 829 : a9;
 82A : f8;
 82B : 91;
 82C : 04;
 82D : c8;
 82E : c8;
 82F : a9;
 830 : 00;
 831 : 91;
 832 : 04;
 833 : c8;
 834 : c8;
 835 : ca;
 836 : d0;
 837 : f1;
 838 : 60;
 839 : 22;
 83A : 17;
 83B : 22;
 83C : 27;
 83D : 86;
 83E : 0f;
 83F : aa;
 840 : b5;
 841 : e0;
 842 : d0;
 843 : 0f;
 844 : 95;
 845 : e6;
 846 : a9;
 847 : 08;
 848 : 95;
 849 : e8;
 84A : a9;
 84B : f0;
 84C : 95;
 84D : ea;
 84E : f6;
 84F : e0;
 850 : 4c;
 851 : 68;
 852 : c8;
 853 : b5;
 854 : e6;
 855 : c9;
 856 : 08;
 857 : b0;
 858 : 0f;
 859 : b4;
 85A : 2f;
 85B : b5;
 85C : e8;
 85D : 79;
 85E : 39;
 85F : c8;
 860 : 95;
 861 : e8;
 862 : b5;
 863 : e6;
 864 : 69;
 865 : 00;
 866 : 95;
 867 : e6;
 868 : b5;
 869 : ea;
 86A : 38;
 86B : f5;
 86C : e2;
 86D : 95;
 86E : ea;
 86F : a5;
 870 : 01;
 871 : f5;
 872 : e4;
 873 : 48;
 874 : 18;
 875 : b5;
 876 : ea;
 877 : 75;
 878 : e8;
 879 : 95;
 87A : ea;
 87B : 68;
 87C : 75;
 87D : e6;
 87E : 85;
 87F : 01;
 880 : a6;
 881 : 0f;
 882 : 60;
 883 : a9;
 884 : 10;
 885 : 20;
 886 : 48;
 887 : c1;
 888 : a9;
 889 : 00;
 88A : 85;
 88B : 12;
 88C : 85;
 88D : 13;
 88E : 4c;
 88F : 81;
 890 : cb;
 891 : a9;
 892 : 00;
 893 : 8d;
 894 : 01;
 895 : 20;
 896 : 60;
 897 : 20;
 898 : 5d;
 899 : c1;
 89A : 20;
 89B : 91;
 89C : c8;
 89D : a9;
 89E : 20;
 89F : 20;
 8A0 : a4;
 8A1 : c8;
 8A2 : a9;
 8A3 : 28;
 8A4 : 85;
 8A5 : 00;
 8A6 : ad;
 8A7 : 02;
 8A8 : 20;
 8A9 : a5;
 8AA : 10;
 8AB : 29;
 8AC : fb;
 8AD : 8d;
 8AE : 00;
 8AF : 20;
 8B0 : a5;
 8B1 : 00;
 8B2 : 8d;
 8B3 : 06;
 8B4 : 20;
 8B5 : a9;
 8B6 : 00;
 8B7 : 8d;
 8B8 : 06;
 8B9 : 20;
 8BA : a8;
 8BB : a2;
 8BC : 04;
 8BD : a9;
 8BE : 38;
 8BF : 8d;
 8C0 : 07;
 8C1 : 20;
 8C2 : 88;
 8C3 : d0;
 8C4 : fa;
 8C5 : ca;
 8C6 : d0;
 8C7 : f7;
 8C8 : a5;
 8C9 : 00;
 8CA : 18;
 8CB : 69;
 8CC : 03;
 8CD : 8d;
 8CE : 06;
 8CF : 20;
 8D0 : a9;
 8D1 : c0;
 8D2 : 8d;
 8D3 : 06;
 8D4 : 20;
 8D5 : a0;
 8D6 : 40;
 8D7 : a9;
 8D8 : 00;
 8D9 : 8d;
 8DA : 07;
 8DB : 20;
 8DC : 88;
 8DD : d0;
 8DE : fa;
 8DF : 60;
 8E0 : 85;
 8E1 : 00;
 8E2 : a6;
 8E3 : 00;
 8E4 : 20;
 8E5 : ee;
 8E6 : c8;
 8E7 : a5;
 8E8 : 00;
 8E9 : 4a;
 8EA : 4a;
 8EB : 4a;
 8EC : 4a;
 8ED : aa;
 8EE : e8;
 8EF : 8a;
 8F0 : 29;
 8F1 : 0f;
 8F2 : c9;
 8F3 : 09;
 8F4 : b0;
 8F5 : 54;
 8F6 : 0a;
 8F7 : 0a;
 8F8 : a8;
 8F9 : ae;
 8FA : 00;
 8FB : 03;
 8FC : b9;
 8FD : 80;
 8FE : c6;
 8FF : 9d;
 900 : 01;
 901 : 03;
 902 : 20;
 903 : 8c;
 904 : cb;
 905 : c8;
 906 : b9;
 907 : 80;
 908 : c6;
 909 : 9d;
 90A : 01;
 90B : 03;
 90C : 20;
 90D : 8c;
 90E : cb;
 90F : c8;
 910 : b9;
 911 : 80;
 912 : c6;
 913 : 29;
 914 : 07;
 915 : 9d;
 916 : 01;
 917 : 03;
 918 : 85;
 919 : 01;
 91A : 8a;
 91B : 38;
 91C : 65;
 91D : 01;
 91E : 20;
 91F : 8e;
 920 : cb;
 921 : aa;
 922 : 8e;
 923 : 00;
 924 : 03;
 925 : a9;
 926 : 00;
 927 : 9d;
 928 : 01;
 929 : 03;
 92A : c8;
 92B : ca;
 92C : b9;
 92D : ec;
 92E : 07;
 92F : 29;
 930 : 0f;
 931 : 9d;
 932 : 01;
 933 : 03;
 934 : c6;
 935 : 01;
 936 : f0;
 937 : 12;
 938 : ca;
 939 : b9;
 93A : ec;
 93B : 07;
 93C : 29;
 93D : f0;
 93E : 4a;
 93F : 4a;
 940 : 4a;
 941 : 4a;
 942 : 9d;
 943 : 01;
 944 : 03;
 945 : 88;
 946 : c6;
 947 : 01;
 948 : d0;
 949 : e1;
 94A : 60;
 94B : a2;
 94C : ff;
 94D : 2c;
 94E : a2;
 94F : 00;
 950 : 85;
 951 : 00;
 952 : 86;
 953 : 04;
 954 : a2;
 955 : 00;
 956 : 86;
 957 : 05;
 958 : 86;
 959 : 06;
 95A : 86;
 95B : 07;
 95C : a5;
 95D : 01;
 95E : 29;
 95F : 08;
 960 : d0;
 961 : 01;
 962 : e8;
 963 : a5;
 964 : 00;
 965 : 95;
 966 : 06;
 967 : a5;
 968 : 01;
 969 : 29;
 96A : 07;
 96B : 0a;
 96C : 0a;
 96D : aa;
 96E : a5;
 96F : 04;
 970 : f0;
 971 : 23;
 972 : bd;
 973 : f0;
 974 : 07;
 975 : f0;
 976 : 23;
 977 : 18;
 978 : 20;
 979 : 44;
 97A : ca;
 97B : 20;
 97C : d7;
 97D : c9;
 97E : 20;
 97F : 2c;
 980 : ca;
 981 : 85;
 982 : 03;
 983 : a5;
 984 : 06;
 985 : 20;
 986 : d7;
 987 : c9;
 988 : 20;
 989 : 36;
 98A : ca;
 98B : 85;
 98C : 03;
 98D : a5;
 98E : 05;
 98F : 20;
 990 : d7;
 991 : c9;
 992 : 4c;
 993 : 40;
 994 : ca;
 995 : bd;
 996 : f0;
 997 : 07;
 998 : f0;
 999 : dd;
 99A : 38;
 99B : 20;
 99C : 44;
 99D : ca;
 99E : 20;
 99F : 29;
 9A0 : ca;
 9A1 : 85;
 9A2 : 03;
 9A3 : a5;
 9A4 : 06;
 9A5 : 20;
 9A6 : 33;
 9A7 : ca;
 9A8 : 85;
 9A9 : 03;
 9AA : a5;
 9AB : 05;
 9AC : 20;
 9AD : 3d;
 9AE : ca;
 9AF : d0;
 9B0 : 0a;
 9B1 : bd;
 9B2 : f2;
 9B3 : 07;
 9B4 : d0;
 9B5 : 05;
 9B6 : bd;
 9B7 : f3;
 9B8 : 07;
 9B9 : f0;
 9BA : 07;
 9BB : b0;
 9BC : 19;
 9BD : bd;
 9BE : f0;
 9BF : 07;
 9C0 : 49;
 9C1 : ff;
 9C2 : 9d;
 9C3 : f0;
 9C4 : 07;
 9C5 : 38;
 9C6 : a9;
 9C7 : 00;
 9C8 : 85;
 9C9 : 03;
 9CA : bd;
 9CB : f3;
 9CC : 07;
 9CD : 20;
 9CE : 29;
 9CF : ca;
 9D0 : 20;
 9D1 : 33;
 9D2 : ca;
 9D3 : 20;
 9D4 : 3d;
 9D5 : ca;
 9D6 : 60;
 9D7 : 20;
 9D8 : 1a;
 9D9 : ca;
 9DA : 65;
 9DB : 01;
 9DC : c9;
 9DD : 0a;
 9DE : 90;
 9DF : 02;
 9E0 : 69;
 9E1 : 05;
 9E2 : 18;
 9E3 : 65;
 9E4 : 02;
 9E5 : 85;
 9E6 : 02;
 9E7 : a5;
 9E8 : 03;
 9E9 : 29;
 9EA : f0;
 9EB : 65;
 9EC : 02;
 9ED : 90;
 9EE : 04;
 9EF : 69;
 9F0 : 5f;
 9F1 : 38;
 9F2 : 60;
 9F3 : c9;
 9F4 : a0;
 9F5 : b0;
 9F6 : f8;
 9F7 : 60;
 9F8 : 20;
 9F9 : 1a;
 9FA : ca;
 9FB : e5;
 9FC : 01;
 9FD : 85;
 9FE : 01;
 9FF : b0;
 A00 : 0a;
 A01 : 69;
 A02 : 0a;
 A03 : 85;
 A04 : 01;
 A05 : a5;
 A06 : 02;
 A07 : 69;
 A08 : 0f;
 A09 : 85;
 A0A : 02;
 A0B : a5;
 A0C : 03;
 A0D : 29;
 A0E : f0;
 A0F : 38;
 A10 : e5;
 A11 : 02;
 A12 : b0;
 A13 : 03;
 A14 : 69;
 A15 : a0;
 A16 : 18;
 A17 : 05;
 A18 : 01;
 A19 : 60;
 A1A : 48;
 A1B : 29;
 A1C : 0f;
 A1D : 85;
 A1E : 01;
 A1F : 68;
 A20 : 29;
 A21 : f0;
 A22 : 85;
 A23 : 02;
 A24 : a5;
 A25 : 03;
 A26 : 29;
 A27 : 0f;
 A28 : 60;
 A29 : 20;
 A2A : f8;
 A2B : c9;
 A2C : 9d;
 A2D : f3;
 A2E : 07;
 A2F : bd;
 A30 : f2;
 A31 : 07;
 A32 : 60;
 A33 : 20;
 A34 : f8;
 A35 : c9;
 A36 : 9d;
 A37 : f2;
 A38 : 07;
 A39 : bd;
 A3A : f1;
 A3B : 07;
 A3C : 60;
 A3D : 20;
 A3E : f8;
 A3F : c9;
 A40 : 9d;
 A41 : f1;
 A42 : 07;
 A43 : 60;
 A44 : bd;
 A45 : f3;
 A46 : 07;
 A47 : 85;
 A48 : 03;
 A49 : a5;
 A4A : 07;
 A4B : 60;
 A4C : a9;
 A4D : 00;
 A4E : 85;
 A4F : 04;
 A50 : 18;
 A51 : a5;
 A52 : 00;
 A53 : 69;
 A54 : 10;
 A55 : 29;
 A56 : f0;
 A57 : 4a;
 A58 : 4a;
 A59 : a8;
 A5A : a5;
 A5B : 00;
 A5C : 29;
 A5D : 07;
 A5E : 0a;
 A5F : 0a;
 A60 : aa;
 A61 : b9;
 A62 : ec;
 A63 : 07;
 A64 : f0;
 A65 : 5b;
 A66 : bd;
 A67 : f0;
 A68 : 07;
 A69 : f0;
 A6A : 29;
 A6B : 38;
 A6C : b9;
 A6D : ef;
 A6E : 07;
 A6F : 85;
 A70 : 03;
 A71 : bd;
 A72 : f3;
 A73 : 07;
 A74 : 20;
 A75 : f8;
 A76 : c9;
 A77 : b9;
 A78 : ee;
 A79 : 07;
 A7A : 85;
 A7B : 03;
 A7C : bd;
 A7D : f2;
 A7E : 07;
 A7F : 20;
 A80 : f8;
 A81 : c9;
 A82 : b9;
 A83 : ed;
 A84 : 07;
 A85 : 85;
 A86 : 03;
 A87 : bd;
 A88 : f1;
 A89 : 07;
 A8A : 20;
 A8B : f8;
 A8C : c9;
 A8D : b0;
 A8E : 37;
 A8F : b9;
 A90 : ec;
 A91 : 07;
 A92 : d0;
 A93 : 37;
 A94 : a9;
 A95 : ff;
 A96 : 85;
 A97 : 04;
 A98 : 38;
 A99 : 98;
 A9A : d0;
 A9B : 24;
 A9C : 90;
 A9D : 16;
 A9E : 8a;
 A9F : 48;
 AA0 : 98;
 AA1 : 48;
 AA2 : a0;
 AA3 : 00;
 AA4 : bd;
 AA5 : f0;
 AA6 : 07;
 AA7 : 99;
 AA8 : ec;
 AA9 : 07;
 AAA : e8;
 AAB : c8;
 AAC : c0;
 AAD : 04;
 AAE : 90;
 AAF : f4;
 AB0 : 68;
 AB1 : a8;
 AB2 : 68;
 AB3 : aa;
 AB4 : a5;
 AB5 : 00;
 AB6 : 29;
 AB7 : 08;
 AB8 : f0;
 AB9 : 06;
 ABA : ca;
 ABB : ca;
 ABC : ca;
 ABD : ca;
 ABE : 10;
 ABF : a1;
 AC0 : 60;
 AC1 : bd;
 AC2 : f0;
 AC3 : 07;
 AC4 : f0;
 AC5 : a5;
 AC6 : b9;
 AC7 : ec;
 AC8 : 07;
 AC9 : d0;
 ACA : c9;
 ACB : 18;
 ACC : 90;
 ACD : cb;
 ACE : a2;
 ACF : 00;
 AD0 : a0;
 AD1 : 05;
 AD2 : a5;
 AD3 : 18;
 AD4 : d0;
 AD5 : 02;
 AD6 : a9;
 AD7 : 37;
 AD8 : 29;
 AD9 : 02;
 ADA : 85;
 ADB : 00;
 ADC : a5;
 ADD : 19;
 ADE : 29;
 ADF : 02;
 AE0 : 45;
 AE1 : 00;
 AE2 : 18;
 AE3 : f0;
 AE4 : 01;
 AE5 : 38;
 AE6 : 76;
 AE7 : 18;
 AE8 : e8;
 AE9 : 88;
 AEA : d0;
 AEB : fa;
 AEC : 60;
 AED : 20;
 AEE : 35;
 AEF : cb;
 AF0 : a9;
 AF1 : 01;
 AF2 : 8d;
 AF3 : 16;
 AF4 : 40;
 AF5 : a2;
 AF6 : 00;
 AF7 : a9;
 AF8 : 00;
 AF9 : 8d;
 AFA : 16;
 AFB : 40;
 AFC : 20;
 AFD : 00;
 AFE : cb;
 AFF : e8;
 B00 : a0;
 B01 : 08;
 B02 : 48;
 B03 : bd;
 B04 : 16;
 B05 : 40;
 B06 : 85;
 B07 : 00;
 B08 : 4a;
 B09 : 05;
 B0A : 00;
 B0B : 4a;
 B0C : 68;
 B0D : 2a;
 B0E : 88;
 B0F : d0;
 B10 : f1;
 B11 : 86;
 B12 : 00;
 B13 : 06;
 B14 : 00;
 B15 : a6;
 B16 : 00;
 B17 : b4;
 B18 : 14;
 B19 : 84;
 B1A : 00;
 B1B : 95;
 B1C : 14;
 B1D : 95;
 B1E : 15;
 B1F : a0;
 B20 : 04;
 B21 : a5;
 B22 : 02;
 B23 : 24;
 B24 : 00;
 B25 : f0;
 B26 : 06;
 B27 : b5;
 B28 : 15;
 B29 : 25;
 B2A : 01;
 B2B : 95;
 B2C : 15;
 B2D : 38;
 B2E : 66;
 B2F : 01;
 B30 : 46;
 B31 : 02;
 B32 : 88;
 B33 : d0;
 B34 : ec;
 B35 : a9;
 B36 : 7f;
 B37 : 85;
 B38 : 01;
 B39 : a9;
 B3A : 80;
 B3B : 85;
 B3C : 02;
 B3D : 60;
 B3E : 8d;
 B3F : 06;
 B40 : 20;
 B41 : c8;
 B42 : b1;
 B43 : 00;
 B44 : 8d;
 B45 : 06;
 B46 : 20;
 B47 : c8;
 B48 : b1;
 B49 : 00;
 B4A : 0a;
 B4B : 48;
 B4C : a5;
 B4D : 10;
 B4E : 09;
 B4F : 04;
 B50 : b0;
 B51 : 02;
 B52 : 29;
 B53 : fb;
 B54 : 20;
 B55 : 48;
 B56 : c1;
 B57 : 68;
 B58 : 0a;
 B59 : 90;
 B5A : 03;
 B5B : 09;
 B5C : 02;
 B5D : c8;
 B5E : 4a;
 B5F : 4a;
 B60 : aa;
 B61 : b0;
 B62 : 01;
 B63 : c8;
 B64 : b1;
 B65 : 00;
 B66 : 8d;
 B67 : 07;
 B68 : 20;
 B69 : ca;
 B6A : d0;
 B6B : f5;
 B6C : 38;
 B6D : 98;
 B6E : 65;
 B6F : 00;
 B70 : 85;
 B71 : 00;
 B72 : a9;
 B73 : 00;
 B74 : 65;
 B75 : 01;
 B76 : 85;
 B77 : 01;
 B78 : ae;
 B79 : 02;
 B7A : 20;
 B7B : a0;
 B7C : 00;
 B7D : b1;
 B7E : 00;
 B7F : d0;
 B80 : bd;
 B81 : a5;
 B82 : 12;
 B83 : 8d;
 B84 : 05;
 B85 : 20;
 B86 : a5;
 B87 : 13;
 B88 : 8d;
 B89 : 05;
 B8A : 20;
 B8B : 60;
 B8C : e8;
 B8D : 8a;
 B8E : c9;
 B8F : 3f;
 B90 : 90;
 B91 : 0a;
 B92 : ae;
 B93 : 00;
 B94 : 03;
 B95 : a9;
 B96 : 00;
 B97 : 9d;
 B98 : 01;
 B99 : 03;
 B9A : 68;
 B9B : 68;
 B9C : 60;
 B9D : a2;
 B9E : 09;
 B9F : c6;
 BA0 : 31;
 BA1 : 10;
 BA2 : 06;
 BA3 : a9;
 BA4 : 0a;
 BA5 : 85;
 BA6 : 31;
 BA7 : a2;
 BA8 : 1d;
 BA9 : b5;
 BAA : 32;
 BAB : f0;
 BAC : 02;
 BAD : d6;
 BAE : 32;
 BAF : ca;
 BB0 : 10;
 BB1 : f7;
 BB2 : 60;
 BB3 : 5c;
 BB4 : 62;
 BB5 : 5c;
 BB6 : 56;
 BB7 : 6e;
 BB8 : 74;
 BB9 : 8c;
 BBA : 92;
 BBB : 7a;
 BBC : 80;
 BBD : 86;
 BBE : 00;
 BBF : 00;
 BC0 : 24;
 BC1 : d6;
 BC2 : 17;
 BC3 : 6e;
 BC4 : 6f;
 BC5 : 16;
 BC6 : 10;
 BC7 : 08;
 BC8 : f8;
 BC9 : 08;
 BCA : 08;
 BCB : f8;
 BCC : 00;
 BCD : f8;
 BCE : 08;
 BCF : f8;
 BD0 : 00;
 BD1 : f8;
 BD2 : f8;
 BD3 : 00;
 BD4 : 10;
 BD5 : 00;
 BD6 : f8;
 BD7 : 10;
 BD8 : 10;
 BD9 : 10;
 BDA : ff;
 BDB : 01;
 BDC : f2;
 BDD : f0;
 BDE : 49;
 BDF : 50;
 BE0 : 79;
 BE1 : 80;
 BE2 : a9;
 BE3 : b0;
 BE4 : d9;
 BE5 : e2;
 BE6 : f1;
 BE7 : fa;
 BE8 : 4a;
 BE9 : 7a;
 BEA : aa;
 BEB : da;
 BEC : f5;
 BED : 80;
 BEE : 40;
 BEF : 20;
 BF0 : 10;
 BF1 : 08;
 BF2 : 04;
 BF3 : 02;
 BF4 : 01;
 BF5 : 00;
 BF6 : 04;
 BF7 : 08;
 BF8 : 04;
 BF9 : 02;
 BFA : fe;
 BFB : a5;
 BFC : 8c;
 BFD : d0;
 BFE : 5f;
 BFF : a5;
 C00 : 15;
 C01 : 85;
 C02 : 70;
 C03 : a2;
 C04 : 00;
 C05 : 20;
 C06 : 13;
 C07 : cd;
 C08 : a2;
 C09 : 00;
 C0A : 20;
 C0B : 99;
 C0C : da;
 C0D : a5;
 C0E : 58;
 C0F : f0;
 C10 : 0e;
 C11 : a5;
 C12 : 17;
 C13 : 85;
 C14 : 71;
 C15 : a2;
 C16 : 01;
 C17 : 20;
 C18 : 13;
 C19 : cd;
 C1A : a2;
 C1B : 01;
 C1C : 20;
 C1D : 99;
 C1E : da;
 C1F : 20;
 C20 : ec;
 C21 : ef;
 C22 : 20;
 C23 : 89;
 C24 : e1;
 C25 : 20;
 C26 : 6a;
 C27 : dc;
 C28 : 20;
 C29 : e5;
 C2A : d1;
 C2B : 20;
 C2C : 22;
 C2D : de;
 C2E : 20;
 C2F : 0d;
 C30 : ee;
 C31 : 20;
 C32 : 9a;
 C33 : ef;
 C34 : 20;
 C35 : 0b;
 C36 : f1;
 C37 : 20;
 C38 : ac;
 C39 : d3;
 C3A : 20;
 C3B : 12;
 C3C : d2;
 C3D : 20;
 C3E : 01;
 C3F : d3;
 C40 : 20;
 C41 : 7f;
 C42 : eb;
 C43 : 20;
 C44 : 23;
 C45 : ec;
 C46 : 20;
 C47 : 38;
 C48 : f8;
 C49 : 20;
 C4A : 93;
 C4B : d4;
 C4C : 20;
 C4D : 9a;
 C4E : e2;
 C4F : 20;
 C50 : b9;
 C51 : e0;
 C52 : 20;
 C53 : cc;
 C54 : d9;
 C55 : 20;
 C56 : 4b;
 C57 : da;
 C58 : 20;
 C59 : 2e;
 C5A : eb;
 C5B : 20;
 C5C : bf;
 C5D : ec;
 C5E : 20;
 C5F : 63;
 C60 : d4;
 C61 : 20;
 C62 : 2f;
 C63 : d8;
 C64 : 4c;
 C65 : de;
 C66 : d7;
 C67 : a9;
 C68 : 04;
 C69 : 4c;
 C6A : f5;
 C6B : d4;
 C6C : 20;
 C6D : 71;
 C6E : f4;
 C6F : 20;
 C70 : 8f;
 C71 : e8;
 C72 : a5;
 C73 : 45;
 C74 : f0;
 C75 : 05;
 C76 : c9;
 C77 : 01;
 C78 : f0;
 C79 : 04;
 C7A : 60;
 C7B : 4c;
 C7C : f2;
 C7D : e8;
 C7E : a5;
 C7F : 20;
 C80 : c9;
 C81 : 80;
 C82 : f0;
 C83 : 13;
 C84 : e6;
 C85 : 59;
 C86 : a5;
 C87 : 59;
 C88 : c9;
 C89 : 63;
 C8A : 90;
 C8B : 04;
 C8C : a9;
 C8D : 00;
 C8E : 85;
 C8F : 59;
 C90 : e6;
 C91 : 56;
 C92 : a9;
 C93 : 01;
 C94 : 4c;
 C95 : f5;
 C96 : d4;
 C97 : a9;
 C98 : 00;
 C99 : 85;
 C9A : 51;
 C9B : 85;
 C9C : 55;
 C9D : 60;
 C9E : a9;
 C9F : 06;
 CA0 : c5;
 CA1 : 6a;
 CA2 : f0;
 CA3 : 49;
 CA4 : c5;
 CA5 : 6b;
 CA6 : f0;
 CA7 : 45;
 CA8 : a5;
 CA9 : 8c;
 CAA : d0;
 CAB : 38;
 CAC : a6;
 CAD : 26;
 CAE : e0;
 CAF : 02;
 CB0 : d0;
 CB1 : 07;
 CB2 : a2;
 CB3 : 00;
 CB4 : 20;
 CB5 : f6;
 CB6 : cc;
 CB7 : a2;
 CB8 : 01;
 CB9 : 20;
 CBA : f6;
 CBB : cc;
 CBC : 20;
 CBD : 12;
 CBE : d2;
 CBF : 20;
 CC0 : 8b;
 CC1 : f7;
 CC2 : 20;
 CC3 : 01;
 CC4 : d3;
 CC5 : 20;
 CC6 : a4;
 CC7 : f6;
 CC8 : 20;
 CC9 : 1d;
 CCA : f7;
 CCB : 20;
 CCC : 2e;
 CCD : eb;
 CCE : 20;
 CCF : 77;
 CD0 : e2;
 CD1 : 20;
 CD2 : 3c;
 CD3 : e3;
 CD4 : 20;
 CD5 : bf;
 CD6 : ec;
 CD7 : a5;
 CD8 : 8d;
 CD9 : c9;
 CDA : 2f;
 CDB : 30;
 CDC : 04;
 CDD : a5;
 CDE : 27;
 CDF : d0;
 CE0 : 03;
 CE1 : 20;
 CE2 : ec;
 CE3 : f2;
 CE4 : 20;
 CE5 : 24;
 CE6 : d7;
 CE7 : 20;
 CE8 : af;
 CE9 : d8;
 CEA : 4c;
 CEB : 90;
 CEC : d8;
 CED : a5;
 CEE : 4d;
 CEF : d0;
 CF0 : 21;
 CF1 : a9;
 CF2 : 03;
 CF3 : 4c;
 CF4 : f5;
 CF5 : d4;
 CF6 : 86;
 CF7 : 5f;
 CF8 : 8a;
 CF9 : 0a;
 CFA : a8;
 CFB : b9;
 CFC : 15;
 CFD : 00;
 CFE : 95;
 CFF : 70;
 D00 : 20;
 D01 : 52;
 D02 : d5;
 D03 : bd;
 D04 : 52;
 D05 : 03;
 D06 : d0;
 D07 : 05;
 D08 : a6;
 D09 : 5f;
 D0A : 20;
 D0B : 9c;
 D0C : d5;
 D0D : a6;
 D0E : 5f;
 D0F : 20;
 D10 : 07;
 D11 : d5;
 D12 : 60;
 D13 : 86;
 D14 : 5f;
 D15 : b5;
 D16 : 5a;
 D17 : f0;
 D18 : 48;
 D19 : b4;
 D1A : 6a;
 D1B : 88;
 D1C : 98;
 D1D : 20;
 D1E : 28;
 D1F : c7;
 D20 : 32;
 D21 : cd;
 D22 : 5d;
 D23 : ce;
 D24 : 38;
 D25 : cd;
 D26 : 08;
 D27 : d0;
 D28 : 5d;
 D29 : d0;
 D2A : 08;
 D2B : d0;
 D2C : aa;
 D2D : d0;
 D2E : 08;
 D2F : d0;
 D30 : 00;
 D31 : d5;
 D32 : 20;
 D33 : b0;
 D34 : cd;
 D35 : 4c;
 D36 : 3b;
 D37 : cd;
 D38 : 20;
 D39 : c6;
 D3A : cf;
 D3B : 20;
 D3C : 62;
 D3D : cd;
 D3E : b0;
 D3F : 21;
 D40 : a9;
 D41 : 05;
 D42 : 95;
 D43 : e8;
 D44 : 95;
 D45 : 6e;
 D46 : a9;
 D47 : 04;
 D48 : 95;
 D49 : e6;
 D4A : 4a;
 D4B : 95;
 D4C : 6a;
 D4D : 4a;
 D4E : 95;
 D4F : e0;
 D50 : 95;
 D51 : 86;
 D52 : 4a;
 D53 : 95;
 D54 : 88;
 D55 : b4;
 D56 : 68;
 D57 : f0;
 D58 : 08;
 D59 : b9;
 D5A : f8;
 D5B : cb;
 D5C : 18;
 D5D : 75;
 D5E : 64;
 D5F : 95;
 D60 : 64;
 D61 : 60;
 D62 : a9;
 D63 : 00;
 D64 : 95;
 D65 : 82;
 D66 : a9;
 D67 : 06;
 D68 : 85;
 D69 : 01;
 D6A : b5;
 D6B : 64;
 D6C : 18;
 D6D : 65;
 D6E : 01;
 D6F : 20;
 D70 : b4;
 D71 : db;
 D72 : 30;
 D73 : 0f;
 D74 : c9;
 D75 : 04;
 D76 : d0;
 D77 : 13;
 D78 : c8;
 D79 : b1;
 D7A : 03;
 D7B : 10;
 D7C : 0e;
 D7D : 88;
 D7E : 88;
 D7F : b1;
 D80 : 03;
 D81 : 10;
 D82 : 08;
 D83 : a9;
 D84 : 09;
 D85 : c5;
 D86 : 01;
 D87 : d0;
 D88 : df;
 D89 : 18;
 D8A : 60;
 D8B : 38;
 D8C : 60;
 D8D : 02;
 D8E : 09;
 D8F : 06;
 D90 : 04;
 D91 : 04;
 D92 : 02;
 D93 : 02;
 D94 : 04;
 D95 : f6;
 D96 : 60;
 D97 : b5;
 D98 : 60;
 D99 : d9;
 D9A : 8d;
 D9B : cd;
 D9C : 90;
 D9D : 11;
 D9E : a9;
 D9F : 00;
 DA0 : 95;
 DA1 : 60;
 DA2 : f6;
 DA3 : 6c;
 DA4 : b5;
 DA5 : 6c;
 DA6 : d9;
 DA7 : 91;
 DA8 : cd;
 DA9 : 90;
 DAA : 04;
 DAB : a9;
 DAC : 00;
 DAD : 95;
 DAE : 6c;
 DAF : 60;
 DB0 : a5;
 DB1 : 55;
 DB2 : c9;
 DB3 : 01;
 DB4 : d0;
 DB5 : 0e;
 DB6 : 8a;
 DB7 : 0a;
 DB8 : a8;
 DB9 : b9;
 DBA : 14;
 DBB : 00;
 DBC : 29;
 DBD : 40;
 DBE : f0;
 DBF : 04;
 DC0 : a9;
 DC1 : 05;
 DC2 : d0;
 DC3 : 17;
 DC4 : b5;
 DC5 : 70;
 DC6 : 29;
 DC7 : 01;
 DC8 : d0;
 DC9 : 15;
 DCA : b5;
 DCB : 70;
 DCC : 29;
 DCD : 02;
 DCE : d0;
 DCF : 19;
 DD0 : b5;
 DD1 : 68;
 DD2 : f0;
 DD3 : 2b;
 DD4 : b5;
 DD5 : 6e;
 DD6 : 4a;
 DD7 : 95;
 DD8 : 32;
 DD9 : a9;
 DDA : 03;
 DDB : 95;
 DDC : 6a;
 DDD : d0;
 DDE : 20;
 DDF : a9;
 DE0 : 01;
 DE1 : b4;
 DE2 : 68;
 DE3 : c0;
 DE4 : 02;
 DE5 : f0;
 DE6 : e9;
 DE7 : d0;
 DE8 : 08;
 DE9 : a9;
 DEA : 02;
 DEB : b4;
 DEC : 68;
 DED : c0;
 DEE : 01;
 DEF : f0;
 DF0 : df;
 DF1 : 95;
 DF2 : 68;
 DF3 : 29;
 DF4 : 01;
 DF5 : 95;
 DF6 : 62;
 DF7 : 20;
 DF8 : 43;
 DF9 : d1;
 DFA : a0;
 DFB : 00;
 DFC : 20;
 DFD : 95;
 DFE : cd;
 DFF : b4;
 E00 : 6c;
 E01 : 20;
 E02 : 7c;
 E03 : d1;
 E04 : a0;
 E05 : d9;
 E06 : a5;
 E07 : 55;
 E08 : c9;
 E09 : 01;
 E0A : f0;
 E0B : 1d;
 E0C : bc;
 E0D : bf;
 E0E : cb;
 E0F : a2;
 E10 : 00;
 E11 : 98;
 E12 : 18;
 E13 : 7d;
 E14 : f5;
 E15 : cb;
 E16 : a8;
 E17 : b9;
 E18 : 05;
 E19 : 02;
 E1A : 18;
 E1B : 69;
 E1C : 77;
 E1D : 99;
 E1E : 05;
 E1F : 02;
 E20 : e8;
 E21 : e0;
 E22 : 04;
 E23 : 90;
 E24 : ec;
 E25 : a0;
 E26 : df;
 E27 : a6;
 E28 : 5f;
 E29 : b5;
 E2A : 70;
 E2B : 29;
 E2C : 03;
 E2D : d0;
 E2E : 14;
 E2F : 98;
 E30 : 48;
 E31 : bc;
 E32 : bf;
 E33 : cb;
 E34 : b5;
 E35 : 62;
 E36 : d0;
 E37 : 07;
 E38 : 68;
 E39 : 99;
 E3A : 09;
 E3B : 02;
 E3C : 4c;
 E3D : 43;
 E3E : ce;
 E3F : 68;
 E40 : 99;
 E41 : 15;
 E42 : 02;
 E43 : b5;
 E44 : 70;
 E45 : 29;
 E46 : 80;
 E47 : f0;
 E48 : 13;
 E49 : a5;
 E4A : 55;
 E4B : c9;
 E4C : 01;
 E4D : f0;
 E4E : 05;
 E4F : d6;
 E50 : 66;
 E51 : a9;
 E52 : 02;
 E53 : 2c;
 E54 : a9;
 E55 : 04;
 E56 : 95;
 E57 : 6a;
 E58 : a9;
 E59 : 04;
 E5A : 85;
 E5B : ff;
 E5C : 60;
 E5D : a9;
 E5E : a8;
 E5F : 95;
 E60 : e2;
 E61 : a9;
 E62 : 03;
 E63 : 95;
 E64 : e4;
 E65 : b5;
 E66 : 68;
 E67 : d0;
 E68 : 2a;
 E69 : b5;
 E6A : e6;
 E6B : c9;
 E6C : 03;
 E6D : 90;
 E6E : 24;
 E6F : b5;
 E70 : 70;
 E71 : 29;
 E72 : 03;
 E73 : f0;
 E74 : 1e;
 E75 : 95;
 E76 : 68;
 E77 : c9;
 E78 : 01;
 E79 : f0;
 E7A : 03;
 E7B : a9;
 E7C : 00;
 E7D : 2c;
 E7E : a9;
 E7F : 01;
 E80 : 95;
 E81 : 62;
 E82 : a9;
 E83 : 0f;
 E84 : 95;
 E85 : 6e;
 E86 : d0;
 E87 : 0b;
 E88 : a9;
 E89 : f0;
 E8A : 2c;
 E8B : a9;
 E8C : b0;
 E8D : 95;
 E8E : e2;
 E8F : a9;
 E90 : 00;
 E91 : 95;
 E92 : e4;
 E93 : b5;
 E94 : 68;
 E95 : f0;
 E96 : 03;
 E97 : 20;
 E98 : 60;
 E99 : d1;
 E9A : 20;
 E9B : 33;
 E9C : d1;
 E9D : 20;
 E9E : ef;
 E9F : ce;
 EA0 : 20;
 EA1 : 1a;
 EA2 : cf;
 EA3 : 90;
 EA4 : 2b;
 EA5 : a5;
 EA6 : 0e;
 EA7 : 38;
 EA8 : e9;
 EA9 : 19;
 EAA : 95;
 EAB : 66;
 EAC : a9;
 EAD : 00;
 EAE : 95;
 EAF : e0;
 EB0 : 95;
 EB1 : 86;
 EB2 : 95;
 EB3 : 88;
 EB4 : 95;
 EB5 : 60;
 EB6 : a6;
 EB7 : 5f;
 EB8 : a9;
 EB9 : 01;
 EBA : 95;
 EBB : 6a;
 EBC : b5;
 EBD : 68;
 EBE : f0;
 EBF : 2e;
 EC0 : a9;
 EC1 : 03;
 EC2 : 95;
 EC3 : 6a;
 EC4 : b5;
 EC5 : 6e;
 EC6 : b4;
 EC7 : 5a;
 EC8 : c0;
 EC9 : 08;
 ECA : b0;
 ECB : 01;
 ECC : 4a;
 ECD : 4a;
 ECE : 95;
 ECF : 32;
 ED0 : b5;
 ED1 : 6a;
 ED2 : c9;
 ED3 : 04;
 ED4 : b0;
 ED5 : 18;
 ED6 : a0;
 ED7 : 07;
 ED8 : 4c;
 ED9 : 7c;
 EDA : d1;
 EDB : a0;
 EDC : 00;
 EDD : d9;
 EDE : dc;
 EDF : cb;
 EE0 : 90;
 EE1 : 05;
 EE2 : d9;
 EE3 : dd;
 EE4 : cb;
 EE5 : 90;
 EE6 : 07;
 EE7 : c8;
 EE8 : c8;
 EE9 : c0;
 EEA : 0c;
 EEB : d0;
 EEC : f0;
 EED : 38;
 EEE : 60;
 EEF : b5;
 EF0 : 86;
 EF1 : d0;
 EF2 : 26;
 EF3 : b5;
 EF4 : 66;
 EF5 : 18;
 EF6 : 69;
 EF7 : fa;
 EF8 : 20;
 EF9 : db;
 EFA : ce;
 EFB : b0;
 EFC : 1c;
 EFD : 20;
 EFE : 5b;
 EFF : cf;
 F00 : 85;
 F01 : 0b;
 F02 : b5;
 F03 : 64;
 F04 : 18;
 F05 : 69;
 F06 : 08;
 F07 : 20;
 F08 : b0;
 F09 : db;
 F0A : 10;
 F0B : 06;
 F0C : a4;
 F0D : 0b;
 F0E : f0;
 F0F : 09;
 F10 : d0;
 F11 : 03;
 F12 : a9;
 F13 : 08;
 F14 : 2c;
 F15 : a9;
 F16 : 06;
 F17 : 95;
 F18 : 6a;
 F19 : 60;
 F1A : b5;
 F1B : 66;
 F1C : 18;
 F1D : 69;
 F1E : 18;
 F1F : 20;
 F20 : db;
 F21 : ce;
 F22 : b0;
 F23 : 2d;
 F24 : 98;
 F25 : 84;
 F26 : 07;
 F27 : d5;
 F28 : 88;
 F29 : f0;
 F2A : 2a;
 F2B : b9;
 F2C : dc;
 F2D : cb;
 F2E : 85;
 F2F : 0e;
 F30 : b5;
 F31 : e6;
 F32 : c9;
 F33 : 03;
 F34 : b0;
 F35 : 10;
 F36 : c9;
 F37 : 02;
 F38 : 90;
 F39 : 1b;
 F3A : b5;
 F3B : 6a;
 F3C : c9;
 F3D : 08;
 F3E : f0;
 F3F : 06;
 F40 : b5;
 F41 : e8;
 F42 : c9;
 F43 : c0;
 F44 : 90;
 F45 : 0f;
 F46 : a4;
 F47 : 07;
 F48 : 94;
 F49 : 88;
 F4A : 20;
 F4B : 62;
 F4C : cd;
 F4D : 90;
 F4E : 06;
 F4F : 38;
 F50 : 60;
 F51 : a9;
 F52 : 00;
 F53 : 95;
 F54 : 88;
 F55 : 18;
 F56 : 60;
 F57 : 01;
 F58 : 80;
 F59 : 03;
 F5A : 0d;
 F5B : a9;
 F5C : 01;
 F5D : 95;
 F5E : 82;
 F5F : 4a;
 F60 : 85;
 F61 : 0a;
 F62 : a9;
 F63 : 08;
 F64 : 20;
 F65 : c0;
 F66 : cf;
 F67 : 30;
 F68 : 04;
 F69 : a9;
 F6A : ff;
 F6B : d0;
 F6C : 3a;
 F6D : b5;
 F6E : 68;
 F6F : d0;
 F70 : 18;
 F71 : a9;
 F72 : 06;
 F73 : 20;
 F74 : c0;
 F75 : cf;
 F76 : 30;
 F77 : 04;
 F78 : a9;
 F79 : e0;
 F7A : 85;
 F7B : 0a;
 F7C : a9;
 F7D : 0a;
 F7E : 20;
 F7F : c0;
 F80 : cf;
 F81 : 30;
 F82 : 26;
 F83 : a5;
 F84 : 0a;
 F85 : 09;
 F86 : 07;
 F87 : d0;
 F88 : 1e;
 F89 : a9;
 F8A : 01;
 F8B : 85;
 F8C : 0c;
 F8D : b4;
 F8E : 62;
 F8F : b9;
 F90 : 59;
 F91 : cf;
 F92 : 20;
 F93 : c0;
 F94 : cf;
 F95 : 10;
 F96 : 02;
 F97 : c6;
 F98 : 0c;
 F99 : b4;
 F9A : 68;
 F9B : 88;
 F9C : a5;
 F9D : 0c;
 F9E : d0;
 F9F : 04;
 FA0 : a9;
 FA1 : 00;
 FA2 : f0;
 FA3 : 03;
 FA4 : b9;
 FA5 : 57;
 FA6 : cf;
 FA7 : 85;
 FA8 : 0a;
 FA9 : b5;
 FAA : 64;
 FAB : 18;
 FAC : 69;
 FAD : 08;
 FAE : 29;
 FAF : 07;
 FB0 : a8;
 FB1 : b9;
 FB2 : ed;
 FB3 : cb;
 FB4 : 05;
 FB5 : 0a;
 FB6 : c5;
 FB7 : 0a;
 FB8 : d0;
 FB9 : 03;
 FBA : a9;
 FBB : 01;
 FBC : 60;
 FBD : a9;
 FBE : 00;
 FBF : 60;
 FC0 : 18;
 FC1 : 75;
 FC2 : 64;
 FC3 : 4c;
 FC4 : b4;
 FC5 : db;
 FC6 : b5;
 FC7 : 68;
 FC8 : f0;
 FC9 : 09;
 FCA : c9;
 FCB : 01;
 FCC : f0;
 FCD : 03;
 FCE : d6;
 FCF : 64;
 FD0 : 2c;
 FD1 : f6;
 FD2 : 64;
 FD3 : a0;
 FD4 : 05;
 FD5 : 20;
 FD6 : 7c;
 FD7 : d1;
 FD8 : b5;
 FD9 : 32;
 FDA : f0;
 FDB : 0f;
 FDC : b5;
 FDD : 5a;
 FDE : c9;
 FDF : 06;
 FE0 : 90;
 FE1 : 09;
 FE2 : b5;
 FE3 : 70;
 FE4 : 29;
 FE5 : 40;
 FE6 : f0;
 FE7 : 14;
 FE8 : a9;
 FE9 : 05;
 FEA : 2c;
 FEB : a9;
 FEC : 01;
 FED : 95;
 FEE : 6a;
 FEF : a9;
 FF0 : 00;
 FF1 : 95;
 FF2 : 32;
 FF3 : 95;
 FF4 : 68;
 FF5 : 95;
 FF6 : 60;
 FF7 : 95;
 FF8 : 6c;
 FF9 : 95;
 FFA : 6e;
 FFB : 60;
 FFC : b5;
 FFD : 70;
 FFE : 29;
 FFF : 80;
1000 : f0;
1001 : f9;
1002 : 20;
1003 : 43;
1004 : ce;
1005 : 4c;
1006 : ef;
1007 : cf;
1008 : b5;
1009 : 6a;
100A : c9;
100B : 06;
100C : f0;
100D : 0a;
100E : c9;
100F : 08;
1010 : f0;
1011 : 0c;
1012 : 20;
1013 : 5d;
1014 : ce;
1015 : 4c;
1016 : 21;
1017 : d0;
1018 : 20;
1019 : 88;
101A : ce;
101B : 4c;
101C : 21;
101D : d0;
101E : 20;
101F : 8b;
1020 : ce;
1021 : b5;
1022 : e0;
1023 : f0;
1024 : d6;
1025 : a6;
1026 : 5f;
1027 : b5;
1028 : 86;
1029 : d0;
102A : 24;
102B : b5;
102C : 6a;
102D : c9;
102E : 04;
102F : f0;
1030 : 1e;
1031 : a5;
1032 : 5f;
1033 : 0a;
1034 : 0a;
1035 : a8;
1036 : b9;
1037 : 1c;
1038 : 02;
1039 : 38;
103A : e9;
103B : 01;
103C : 20;
103D : db;
103E : ce;
103F : b0;
1040 : 0e;
1041 : b5;
1042 : e6;
1043 : c9;
1044 : 03;
1045 : b0;
1046 : 08;
1047 : a9;
1048 : 01;
1049 : 95;
104A : 80;
104B : 95;
104C : 86;
104D : 95;
104E : 82;
104F : a0;
1050 : 07;
1051 : b5;
1052 : 60;
1053 : c9;
1054 : 0b;
1055 : b0;
1056 : 03;
1057 : f6;
1058 : 60;
1059 : 88;
105A : 4c;
105B : 7c;
105C : d1;
105D : f6;
105E : 60;
105F : b5;
1060 : 60;
1061 : c9;
1062 : 14;
1063 : b0;
1064 : 17;
1065 : c9;
1066 : 01;
1067 : 90;
1068 : 92;
1069 : a0;
106A : 0a;
106B : c9;
106C : 0b;
106D : b0;
106E : 0a;
106F : c9;
1070 : 07;
1071 : b0;
1072 : 04;
1073 : a0;
1074 : 07;
1075 : d0;
1076 : 02;
1077 : a0;
1078 : 09;
1079 : 4c;
107A : 7c;
107B : d1;
107C : a9;
107D : 01;
107E : 95;
107F : 6a;
1080 : 4a;
1081 : 95;
1082 : 60;
1083 : a8;
1084 : f0;
1085 : f3;
1086 : 8e;
1087 : d0;
1088 : 94;
1089 : d0;
108A : 9a;
108B : d0;
108C : a0;
108D : d0;
108E : 68;
108F : 69;
1090 : 6a;
1091 : 6b;
1092 : 6c;
1093 : 6d;
1094 : 6a;
1095 : 69;
1096 : 68;
1097 : 6d;
1098 : 6c;
1099 : 6b;
109A : 6d;
109B : 6c;
109C : 6b;
109D : 6a;
109E : 69;
109F : 68;
10A0 : 6b;
10A1 : 6c;
10A2 : 6d;
10A3 : 68;
10A4 : 69;
10A5 : 6a;
10A6 : 00;
10A7 : 80;
10A8 : c0;
10A9 : 40;
10AA : b5;
10AB : 32;
10AC : f0;
10AD : 1c;
10AE : c9;
10AF : 10;
10B0 : f0;
10B1 : 06;
10B2 : b0;
10B3 : 0c;
10B4 : a0;
10B5 : 0b;
10B6 : d0;
10B7 : 0f;
10B8 : 8a;
10B9 : 18;
10BA : 69;
10BB : 0b;
10BC : aa;
10BD : 4c;
10BE : 91;
10BF : f6;
10C0 : a9;
10C1 : 00;
10C2 : 95;
10C3 : e0;
10C4 : 60;
10C5 : a0;
10C6 : 00;
10C7 : 4c;
10C8 : 7c;
10C9 : d1;
10CA : a6;
10CB : 5f;
10CC : 20;
10CD : 27;
10CE : d1;
10CF : 20;
10D0 : c5;
10D1 : d0;
10D2 : a0;
10D3 : 03;
10D4 : 20;
10D5 : 95;
10D6 : cd;
10D7 : b5;
10D8 : 6c;
10D9 : 0a;
10DA : a8;
10DB : b9;
10DC : 86;
10DD : d0;
10DE : 85;
10DF : 00;
10E0 : b9;
10E1 : 87;
10E2 : d0;
10E3 : 85;
10E4 : 01;
10E5 : b4;
10E6 : 6c;
10E7 : b9;
10E8 : a6;
10E9 : d0;
10EA : 85;
10EB : 02;
10EC : a9;
10ED : 01;
10EE : e0;
10EF : 00;
10F0 : f0;
10F1 : 02;
10F2 : a9;
10F3 : 25;
10F4 : aa;
10F5 : a0;
10F6 : 00;
10F7 : b1;
10F8 : 00;
10F9 : 9d;
10FA : 00;
10FB : 02;
10FC : e8;
10FD : bd;
10FE : 00;
10FF : 02;
1100 : 29;
1101 : 03;
1102 : 05;
1103 : 02;
1104 : 9d;
1105 : 00;
1106 : 02;
1107 : e8;
1108 : e8;
1109 : e8;
110A : c8;
110B : c0;
110C : 06;
110D : 90;
110E : e8;
110F : a6;
1110 : 5f;
1111 : b5;
1112 : 32;
1113 : d0;
1114 : 11;
1115 : a0;
1116 : 0b;
1117 : b9;
1118 : 90;
1119 : 00;
111A : c9;
111B : 20;
111C : d0;
111D : 05;
111E : a9;
111F : ff;
1120 : 99;
1121 : 90;
1122 : 00;
1123 : 88;
1124 : d0;
1125 : f1;
1126 : 60;
1127 : a9;
1128 : 01;
1129 : 95;
112A : e4;
112B : a9;
112C : 80;
112D : 95;
112E : e2;
112F : a9;
1130 : 01;
1131 : 95;
1132 : 2f;
1133 : b5;
1134 : 66;
1135 : 85;
1136 : 01;
1137 : a5;
1138 : 5f;
1139 : 20;
113A : 3d;
113B : c8;
113C : a6;
113D : 5f;
113E : a5;
113F : 01;
1140 : 95;
1141 : 66;
1142 : 60;
1143 : b4;
1144 : 6a;
1145 : c0;
1146 : 01;
1147 : d0;
1148 : 17;
1149 : b5;
114A : 6e;
114B : c9;
114C : 18;
114D : b0;
114E : 02;
114F : f6;
1150 : 6e;
1151 : b5;
1152 : 76;
1153 : 18;
1154 : 69;
1155 : 20;
1156 : 95;
1157 : 76;
1158 : 90;
1159 : 17;
115A : 20;
115B : 71;
115C : d1;
115D : 4c;
115E : 71;
115F : d1;
1160 : a9;
1161 : 90;
1162 : b4;
1163 : 6e;
1164 : c0;
1165 : 0c;
1166 : b0;
1167 : 02;
1168 : a9;
1169 : 45;
116A : 18;
116B : 75;
116C : 72;
116D : 95;
116E : 72;
116F : 90;
1170 : 0a;
1171 : b4;
1172 : 62;
1173 : b9;
1174 : da;
1175 : cb;
1176 : 18;
1177 : 75;
1178 : 64;
1179 : 95;
117A : 64;
117B : 60;
117C : b9;
117D : b3;
117E : cb;
117F : 85;
1180 : 02;
1181 : 98;
1182 : 48;
1183 : a6;
1184 : 5f;
1185 : b5;
1186 : 64;
1187 : 85;
1188 : 00;
1189 : b5;
118A : 66;
118B : c0;
118C : 0a;
118D : d0;
118E : 03;
118F : 38;
1190 : e9;
1191 : 08;
1192 : 85;
1193 : 01;
1194 : b5;
1195 : 62;
1196 : 85;
1197 : 0f;
1198 : 8a;
1199 : a8;
119A : c8;
119B : 20;
119C : db;
119D : d1;
119E : 68;
119F : c9;
11A0 : 0b;
11A1 : f0;
11A2 : 04;
11A3 : c9;
11A4 : 06;
11A5 : b0;
11A6 : 04;
11A7 : a9;
11A8 : f8;
11A9 : d0;
11AA : 27;
11AB : 38;
11AC : e9;
11AD : 06;
11AE : 85;
11AF : 07;
11B0 : a4;
11B1 : 07;
11B2 : b9;
11B3 : c1;
11B4 : cb;
11B5 : 85;
11B6 : 02;
11B7 : a5;
11B8 : 07;
11B9 : 0a;
11BA : 0a;
11BB : a8;
11BC : a6;
11BD : 5f;
11BE : b5;
11BF : 62;
11C0 : f0;
11C1 : 02;
11C2 : c8;
11C3 : c8;
11C4 : b9;
11C5 : c6;
11C6 : cb;
11C7 : 18;
11C8 : 75;
11C9 : 64;
11CA : 85;
11CB : 00;
11CC : b9;
11CD : c7;
11CE : cb;
11CF : 18;
11D0 : 75;
11D1 : 66;
11D2 : 85;
11D3 : 01;
11D4 : a0;
11D5 : 0b;
11D6 : e0;
11D7 : 00;
11D8 : f0;
11D9 : 01;
11DA : c8;
11DB : a9;
11DC : 01;
11DD : 85;
11DE : 0e;
11DF : 20;
11E0 : fc;
11E1 : ea;
11E2 : a6;
11E3 : 5f;
11E4 : 60;
11E5 : a2;
11E6 : 01;
11E7 : b5;
11E8 : 5a;
11E9 : f0;
11EA : 0a;
11EB : b5;
11EC : 66;
11ED : 18;
11EE : 69;
11EF : 18;
11F0 : 20;
11F1 : f9;
11F2 : d1;
11F3 : 95;
11F4 : 5a;
11F5 : ca;
11F6 : 10;
11F7 : ef;
11F8 : 60;
11F9 : a0;
11FA : 00;
11FB : d9;
11FC : e8;
11FD : cb;
11FE : 90;
11FF : 06;
1200 : c8;
1201 : c0;
1202 : 05;
1203 : d0;
1204 : f6;
1205 : 88;
1206 : 84;
1207 : 0a;
1208 : a5;
1209 : 90;
120A : 38;
120B : e5;
120C : 0a;
120D : d0;
120E : 02;
120F : a9;
1210 : 01;
1211 : 60;
1212 : a5;
1213 : 5a;
1214 : 25;
1215 : 5b;
1216 : f0;
1217 : f9;
1218 : a5;
1219 : 2d;
121A : 05;
121B : 2e;
121C : d0;
121D : f3;
121E : a9;
121F : 07;
1220 : c5;
1221 : 6a;
1222 : f0;
1223 : ed;
1224 : c5;
1225 : 6b;
1226 : f0;
1227 : e9;
1228 : 20;
1229 : d9;
122A : d2;
122B : b0;
122C : e4;
122D : a9;
122E : 00;
122F : 85;
1230 : 02;
1231 : a5;
1232 : 6a;
1233 : 4a;
1234 : b0;
1235 : 24;
1236 : a5;
1237 : 00;
1238 : c9;
1239 : 09;
123A : b0;
123B : 1e;
123C : a5;
123D : 66;
123E : c5;
123F : 67;
1240 : b0;
1241 : 07;
1242 : c9;
1243 : c3;
1244 : b0;
1245 : 05;
1246 : c6;
1247 : 66;
1248 : 2c;
1249 : e6;
124A : 66;
124B : a5;
124C : 62;
124D : f0;
124E : 03;
124F : e6;
1250 : 64;
1251 : 2c;
1252 : c6;
1253 : 64;
1254 : a9;
1255 : 01;
1256 : 85;
1257 : 02;
1258 : d0;
1259 : 0f;
125A : a2;
125B : 00;
125C : a5;
125D : 03;
125E : 10;
125F : 04;
1260 : a9;
1261 : 00;
1262 : f0;
1263 : 02;
1264 : a9;
1265 : 01;
1266 : 20;
1267 : bc;
1268 : d2;
1269 : a5;
126A : 6b;
126B : 29;
126C : 01;
126D : d0;
126E : 47;
126F : a5;
1270 : 00;
1271 : c9;
1272 : 09;
1273 : b0;
1274 : 41;
1275 : a5;
1276 : 67;
1277 : c5;
1278 : 66;
1279 : b0;
127A : 07;
127B : c9;
127C : c3;
127D : b0;
127E : 05;
127F : c6;
1280 : 67;
1281 : 2c;
1282 : e6;
1283 : 67;
1284 : a5;
1285 : 02;
1286 : f0;
1287 : 2d;
1288 : a5;
1289 : e6;
128A : 48;
128B : a5;
128C : e7;
128D : 85;
128E : e6;
128F : 68;
1290 : 85;
1291 : e7;
1292 : a5;
1293 : e8;
1294 : 48;
1295 : a5;
1296 : e9;
1297 : 85;
1298 : e8;
1299 : 68;
129A : 85;
129B : e9;
129C : a2;
129D : 01;
129E : b5;
129F : e6;
12A0 : c9;
12A1 : 06;
12A2 : 90;
12A3 : 04;
12A4 : a9;
12A5 : 05;
12A6 : 95;
12A7 : e6;
12A8 : ca;
12A9 : 10;
12AA : f3;
12AB : a9;
12AC : 00;
12AD : 85;
12AE : 86;
12AF : 85;
12B0 : 87;
12B1 : 85;
12B2 : 88;
12B3 : 85;
12B4 : 89;
12B5 : 60;
12B6 : a2;
12B7 : 01;
12B8 : a5;
12B9 : 62;
12BA : 49;
12BB : 01;
12BC : 95;
12BD : 62;
12BE : f0;
12BF : 07;
12C0 : f6;
12C1 : 64;
12C2 : f6;
12C3 : 64;
12C4 : 4c;
12C5 : cb;
12C6 : d2;
12C7 : d6;
12C8 : 64;
12C9 : d6;
12CA : 64;
12CB : b5;
12CC : 68;
12CD : 4a;
12CE : 90;
12CF : 02;
12D0 : a9;
12D1 : 02;
12D2 : 95;
12D3 : 68;
12D4 : a9;
12D5 : 18;
12D6 : 95;
12D7 : 6e;
12D8 : 60;
12D9 : a5;
12DA : 64;
12DB : 38;
12DC : e5;
12DD : 65;
12DE : 85;
12DF : 03;
12E0 : 20;
12E1 : f9;
12E2 : d2;
12E3 : 85;
12E4 : 00;
12E5 : c9;
12E6 : 0a;
12E7 : b0;
12E8 : 0f;
12E9 : a5;
12EA : 66;
12EB : 38;
12EC : e5;
12ED : 67;
12EE : 20;
12EF : f9;
12F0 : d2;
12F1 : 85;
12F2 : 01;
12F3 : c9;
12F4 : 15;
12F5 : 90;
12F6 : 01;
12F7 : 38;
12F8 : 60;
12F9 : 10;
12FA : 05;
12FB : 49;
12FC : ff;
12FD : 18;
12FE : 69;
12FF : 01;
1300 : 60;
1301 : a2;
1302 : 00;
1303 : 20;
1304 : 08;
1305 : d3;
1306 : a2;
1307 : 01;
1308 : b5;
1309 : 5a;
130A : f0;
130B : 65;
130C : b5;
130D : 6a;
130E : f0;
130F : 61;
1310 : c9;
1311 : 07;
1312 : f0;
1313 : 5d;
1314 : c9;
1315 : 09;
1316 : f0;
1317 : 59;
1318 : b5;
1319 : 2d;
131A : d0;
131B : 55;
131C : b5;
131D : 64;
131E : 18;
131F : 69;
1320 : 08;
1321 : 85;
1322 : 0a;
1323 : b5;
1324 : 66;
1325 : 18;
1326 : 69;
1327 : 0c;
1328 : 85;
1329 : 0b;
132A : 8a;
132B : 48;
132C : a0;
132D : 00;
132E : a9;
132F : 01;
1330 : 20;
1331 : 1d;
1332 : db;
1333 : b0;
1334 : 07;
1335 : c8;
1336 : c0;
1337 : 0b;
1338 : 90;
1339 : f4;
133A : 68;
133B : 60;
133C : 68;
133D : aa;
133E : a5;
133F : 55;
1340 : c9;
1341 : 02;
1342 : f0;
1343 : 4f;
1344 : c0;
1345 : 01;
1346 : f0;
1347 : 2a;
1348 : 20;
1349 : 46;
134A : d4;
134B : a9;
134C : 20;
134D : 99;
134E : 91;
134F : 00;
1350 : c0;
1351 : 02;
1352 : 90;
1353 : 1d;
1354 : c0;
1355 : 08;
1356 : b0;
1357 : 19;
1358 : c0;
1359 : 05;
135A : b0;
135B : 0b;
135C : b9;
135D : 94;
135E : 00;
135F : 10;
1360 : 10;
1361 : a9;
1362 : 20;
1363 : 99;
1364 : 94;
1365 : 00;
1366 : 60;
1367 : b9;
1368 : 8e;
1369 : 00;
136A : 10;
136B : 05;
136C : a9;
136D : 20;
136E : 99;
136F : 8e;
1370 : 00;
1371 : 60;
1372 : a0;
1373 : 01;
1374 : a5;
1375 : 00;
1376 : 30;
1377 : 07;
1378 : d6;
1379 : 64;
137A : d6;
137B : 64;
137C : c8;
137D : d0;
137E : 04;
137F : f6;
1380 : 64;
1381 : f6;
1382 : 64;
1383 : b5;
1384 : 6a;
1385 : 29;
1386 : 01;
1387 : f0;
1388 : 07;
1389 : 94;
138A : 68;
138B : 98;
138C : 29;
138D : 01;
138E : 95;
138F : 62;
1390 : 60;
1391 : 00;
1392 : 05;
1393 : c0;
1394 : 03;
1395 : 90;
1396 : 14;
1397 : c0;
1398 : 09;
1399 : b0;
139A : 10;
139B : a9;
139C : 01;
139D : 99;
139E : 91;
139F : 00;
13A0 : bd;
13A1 : 91;
13A2 : d3;
13A3 : aa;
13A4 : fe;
13A5 : 61;
13A6 : 03;
13A7 : a9;
13A8 : 10;
13A9 : 85;
13AA : fe;
13AB : 60;
13AC : a2;
13AD : 00;
13AE : 20;
13AF : b3;
13B0 : d3;
13B1 : a2;
13B2 : 01;
13B3 : b5;
13B4 : 5a;
13B5 : f0;
13B6 : 3e;
13B7 : 8a;
13B8 : 0a;
13B9 : 0a;
13BA : a8;
13BB : b9;
13BC : 1c;
13BD : 02;
13BE : 18;
13BF : 69;
13C0 : 0a;
13C1 : 85;
13C2 : 0b;
13C3 : b9;
13C4 : 1f;
13C5 : 02;
13C6 : 18;
13C7 : 69;
13C8 : 04;
13C9 : 85;
13CA : 0a;
13CB : 86;
13CC : 09;
13CD : a0;
13CE : 0a;
13CF : a6;
13D0 : 09;
13D1 : c0;
13D2 : 00;
13D3 : f0;
13D4 : 04;
13D5 : c0;
13D6 : 08;
13D7 : 90;
13D8 : 06;
13D9 : b5;
13DA : 6a;
13DB : c9;
13DC : 04;
13DD : f0;
13DE : 0c;
13DF : b5;
13E0 : 6a;
13E1 : c9;
13E2 : 05;
13E3 : d0;
13E4 : 0d;
13E5 : b5;
13E6 : 60;
13E7 : c9;
13E8 : 09;
13E9 : d0;
13EA : 07;
13EB : a9;
13EC : 00;
13ED : 20;
13EE : 1d;
13EF : db;
13F0 : b0;
13F1 : 04;
13F2 : 88;
13F3 : 10;
13F4 : da;
13F5 : 60;
13F6 : a6;
13F7 : 09;
13F8 : a9;
13F9 : 01;
13FA : c0;
13FB : 01;
13FC : d0;
13FD : 02;
13FE : a9;
13FF : 05;
1400 : 99;
1401 : 91;
1402 : 00;
1403 : a9;
1404 : 00;
1405 : 99;
1406 : b1;
1407 : 03;
1408 : a9;
1409 : ff;
140A : 99;
140B : d2;
140C : 03;
140D : 8a;
140E : 48;
140F : 20;
1410 : 21;
1411 : d4;
1412 : 68;
1413 : aa;
1414 : c0;
1415 : 00;
1416 : f0;
1417 : dd;
1418 : c0;
1419 : 08;
141A : b0;
141B : d9;
141C : 86;
141D : 5f;
141E : 4c;
141F : 7c;
1420 : d0;
1421 : bd;
1422 : 91;
1423 : d3;
1424 : aa;
1425 : c0;
1426 : 00;
1427 : d0;
1428 : 08;
1429 : fe;
142A : 63;
142B : 03;
142C : a9;
142D : 01;
142E : 85;
142F : fe;
1430 : 60;
1431 : c0;
1432 : 05;
1433 : 90;
1434 : 07;
1435 : c0;
1436 : 08;
1437 : b0;
1438 : 08;
1439 : fe;
143A : 62;
143B : 03;
143C : a9;
143D : 08;
143E : 85;
143F : ff;
1440 : 60;
1441 : a9;
1442 : 02;
1443 : 85;
1444 : fc;
1445 : 60;
1446 : a9;
1447 : 07;
1448 : 95;
1449 : 6a;
144A : b5;
144B : 5a;
144C : 9d;
144D : 82;
144E : 03;
144F : 8a;
1450 : 48;
1451 : 18;
1452 : 69;
1453 : 0d;
1454 : aa;
1455 : 20;
1456 : 91;
1457 : f6;
1458 : 68;
1459 : aa;
145A : a9;
145B : 40;
145C : 95;
145D : 32;
145E : a9;
145F : 01;
1460 : 85;
1461 : ff;
1462 : 60;
1463 : a2;
1464 : 00;
1465 : b5;
1466 : 5a;
1467 : f0;
1468 : 1e;
1469 : b5;
146A : 66;
146B : 18;
146C : 69;
146D : 19;
146E : 20;
146F : db;
1470 : ce;
1471 : b0;
1472 : 14;
1473 : c0;
1474 : 0a;
1475 : d0;
1476 : 10;
1477 : a9;
1478 : 00;
1479 : 95;
147A : 5a;
147B : 95;
147C : e0;
147D : b5;
147E : 2d;
147F : d0;
1480 : 02;
1481 : d6;
1482 : 20;
1483 : a9;
1484 : 08;
1485 : 95;
1486 : 3f;
1487 : e8;
1488 : e0;
1489 : 02;
148A : d0;
148B : d9;
148C : 60;
148D : 2c;
148E : 64;
148F : ac;
1490 : 4c;
1491 : 94;
1492 : cc;
1493 : a2;
1494 : 01;
1495 : b5;
1496 : 5a;
1497 : c9;
1498 : 09;
1499 : d0;
149A : 33;
149B : a0;
149C : 02;
149D : b5;
149E : 64;
149F : d9;
14A0 : 8d;
14A1 : d4;
14A2 : 90;
14A3 : 05;
14A4 : d9;
14A5 : 90;
14A6 : d4;
14A7 : 90;
14A8 : 05;
14A9 : 88;
14AA : 10;
14AB : f1;
14AC : 30;
14AD : 20;
14AE : b5;
14AF : e6;
14B0 : c9;
14B1 : 03;
14B2 : 90;
14B3 : 0c;
14B4 : b5;
14B5 : 66;
14B6 : c9;
14B7 : 14;
14B8 : b0;
14B9 : 14;
14BA : c9;
14BB : 10;
14BC : b0;
14BD : 14;
14BE : 90;
14BF : 0e;
14C0 : b5;
14C1 : 66;
14C2 : c9;
14C3 : 2c;
14C4 : b0;
14C5 : 08;
14C6 : c9;
14C7 : 28;
14C8 : 90;
14C9 : 04;
14CA : a9;
14CB : 03;
14CC : 95;
14CD : e6;
14CE : ca;
14CF : 10;
14D0 : c4;
14D1 : 60;
14D2 : a9;
14D3 : 10;
14D4 : 95;
14D5 : 66;
14D6 : a9;
14D7 : 09;
14D8 : c5;
14D9 : 5a;
14DA : f0;
14DB : 08;
14DC : c5;
14DD : 5b;
14DE : d0;
14DF : ac;
14E0 : a9;
14E1 : 01;
14E2 : d0;
14E3 : 0a;
14E4 : a9;
14E5 : 00;
14E6 : a4;
14E7 : 5b;
14E8 : c0;
14E9 : 09;
14EA : d0;
14EB : 02;
14EC : a9;
14ED : 02;
14EE : 85;
14EF : 26;
14F0 : a9;
14F1 : 02;
14F2 : 2c;
14F3 : a9;
14F4 : 01;
14F5 : 85;
14F6 : 55;
14F7 : a9;
14F8 : 80;
14F9 : 85;
14FA : fb;
14FB : 0a;
14FC : 85;
14FD : 34;
14FE : 85;
14FF : 51;
1500 : 60;
1501 : 01;
1502 : 02;
1503 : 04;
1504 : 04;
1505 : 0a;
1506 : 05;
1507 : a5;
1508 : 13;
1509 : d0;
150A : 3c;
150B : b5;
150C : 66;
150D : c9;
150E : 26;
150F : b0;
1510 : 36;
1511 : ad;
1512 : 61;
1513 : 03;
1514 : 6d;
1515 : 66;
1516 : 03;
1517 : 4a;
1518 : 29;
1519 : 03;
151A : a8;
151B : b9;
151C : 01;
151D : d5;
151E : 85;
151F : 01;
1520 : a4;
1521 : d5;
1522 : b9;
1523 : 05;
1524 : d5;
1525 : 18;
1526 : 65;
1527 : d6;
1528 : 85;
1529 : 00;
152A : d5;
152B : 64;
152C : b0;
152D : 19;
152E : 65;
152F : 01;
1530 : d5;
1531 : 64;
1532 : 90;
1533 : 13;
1534 : a5;
1535 : 00;
1536 : 95;
1537 : 64;
1538 : e8;
1539 : 86;
153A : 1e;
153B : ca;
153C : a9;
153D : 06;
153E : 95;
153F : 6a;
1540 : a9;
1541 : 10;
1542 : 85;
1543 : fb;
1544 : 0a;
1545 : 85;
1546 : 4d;
1547 : a5;
1548 : 5f;
1549 : 0a;
154A : 0a;
154B : a8;
154C : a9;
154D : f8;
154E : 99;
154F : 1c;
1550 : 02;
1551 : 60;
1552 : b5;
1553 : 6a;
1554 : c9;
1555 : 01;
1556 : f0;
1557 : 09;
1558 : c9;
1559 : 02;
155A : f0;
155B : 0b;
155C : c9;
155D : 03;
155E : f0;
155F : 04;
1560 : 60;
1561 : 4c;
1562 : b0;
1563 : cd;
1564 : 4c;
1565 : c6;
1566 : cf;
1567 : a9;
1568 : a8;
1569 : 95;
156A : e2;
156B : a9;
156C : 03;
156D : 95;
156E : e4;
156F : b5;
1570 : 68;
1571 : d0;
1572 : 1a;
1573 : b5;
1574 : e6;
1575 : c9;
1576 : 03;
1577 : 90;
1578 : 14;
1579 : b5;
157A : 70;
157B : 29;
157C : 03;
157D : f0;
157E : 0e;
157F : 95;
1580 : 68;
1581 : c9;
1582 : 01;
1583 : f0;
1584 : 02;
1585 : a9;
1586 : 00;
1587 : 95;
1588 : 62;
1589 : a9;
158A : 0f;
158B : 95;
158C : 6e;
158D : b5;
158E : 68;
158F : f0;
1590 : 03;
1591 : 20;
1592 : 60;
1593 : d1;
1594 : 20;
1595 : 33;
1596 : d1;
1597 : a0;
1598 : 07;
1599 : 4c;
159A : 7c;
159B : d1;
159C : a9;
159D : 00;
159E : 95;
159F : 2a;
15A0 : a5;
15A1 : 13;
15A2 : 18;
15A3 : 75;
15A4 : 66;
15A5 : b0;
15A6 : 09;
15A7 : 95;
15A8 : 28;
15A9 : a4;
15AA : 27;
15AB : f0;
15AC : 07;
15AD : 38;
15AE : e9;
15AF : 10;
15B0 : 95;
15B1 : 28;
15B2 : f6;
15B3 : 2a;
15B4 : b5;
15B5 : 2a;
15B6 : 85;
15B7 : 09;
15B8 : b5;
15B9 : 28;
15BA : 85;
15BB : 0b;
15BC : 18;
15BD : 69;
15BE : 18;
15BF : 85;
15C0 : 0a;
15C1 : 90;
15C2 : 02;
15C3 : e6;
15C4 : 09;
15C5 : b5;
15C6 : 64;
15C7 : 85;
15C8 : 0d;
15C9 : 18;
15CA : 69;
15CB : 10;
15CC : 85;
15CD : 0c;
15CE : bd;
15CF : 52;
15D0 : 03;
15D1 : d0;
15D2 : 75;
15D3 : a0;
15D4 : 00;
15D5 : b9;
15D6 : e0;
15D7 : 06;
15D8 : 30;
15D9 : 29;
15DA : c5;
15DB : 09;
15DC : d0;
15DD : 25;
15DE : b9;
15DF : 68;
15E0 : 06;
15E1 : e9;
15E2 : 08;
15E3 : d5;
15E4 : 64;
15E5 : b0;
15E6 : 1c;
15E7 : b9;
15E8 : 86;
15E9 : 06;
15EA : 38;
15EB : e9;
15EC : 08;
15ED : d5;
15EE : 64;
15EF : 90;
15F0 : 12;
15F1 : a5;
15F2 : 0a;
15F3 : e9;
15F4 : 03;
15F5 : d9;
15F6 : a4;
15F7 : 06;
15F8 : f0;
15F9 : 1d;
15FA : b0;
15FB : 07;
15FC : 69;
15FD : 04;
15FE : d9;
15FF : a4;
1600 : 06;
1601 : b0;
1602 : 14;
1603 : c8;
1604 : c0;
1605 : 1e;
1606 : d0;
1607 : cd;
1608 : a9;
1609 : 02;
160A : d5;
160B : 6a;
160C : f0;
160D : 2d;
160E : 95;
160F : 6a;
1610 : a9;
1611 : 03;
1612 : 95;
1613 : e6;
1614 : 4a;
1615 : d0;
1616 : 22;
1617 : 98;
1618 : 9d;
1619 : 83;
161A : 07;
161B : b5;
161C : 6a;
161D : c9;
161E : 01;
161F : f0;
1620 : 0e;
1621 : c9;
1622 : 03;
1623 : f0;
1624 : 16;
1625 : b5;
1626 : e6;
1627 : c9;
1628 : 03;
1629 : 90;
162A : 10;
162B : a9;
162C : 03;
162D : 95;
162E : 6a;
162F : b9;
1630 : a4;
1631 : 06;
1632 : 38;
1633 : e9;
1634 : 19;
1635 : 95;
1636 : 28;
1637 : a9;
1638 : 00;
1639 : 95;
163A : e0;
163B : 20;
163C : e0;
163D : d6;
163E : b5;
163F : 28;
1640 : 38;
1641 : e5;
1642 : 0b;
1643 : 18;
1644 : 75;
1645 : 66;
1646 : 95;
1647 : 66;
1648 : a6;
1649 : 5f;
164A : a9;
164B : 00;
164C : 9d;
164D : 52;
164E : 03;
164F : b5;
1650 : 6a;
1651 : f0;
1652 : 78;
1653 : a5;
1654 : 13;
1655 : 15;
1656 : 2a;
1657 : d0;
1658 : 10;
1659 : b5;
165A : 64;
165B : c9;
165C : 2b;
165D : 90;
165E : 6d;
165F : c9;
1660 : c6;
1661 : b0;
1662 : 69;
1663 : b5;
1664 : 28;
1665 : c9;
1666 : 58;
1667 : 90;
1668 : 62;
1669 : a9;
166A : 00;
166B : 85;
166C : 09;
166D : b5;
166E : 28;
166F : 38;
1670 : e9;
1671 : 57;
1672 : 90;
1673 : 0c;
1674 : b4;
1675 : 2a;
1676 : 84;
1677 : 09;
1678 : f0;
1679 : 0a;
167A : 18;
167B : 69;
167C : 20;
167D : 4c;
167E : 84;
167F : d6;
1680 : b4;
1681 : 2a;
1682 : f0;
1683 : 13;
1684 : a0;
1685 : 00;
1686 : c9;
1687 : 38;
1688 : 90;
1689 : 05;
168A : e9;
168B : 38;
168C : c8;
168D : d0;
168E : f7;
168F : a5;
1690 : 09;
1691 : f0;
1692 : 04;
1693 : c8;
1694 : c8;
1695 : c8;
1696 : c8;
1697 : a9;
1698 : a8;
1699 : c0;
169A : 00;
169B : f0;
169C : 06;
169D : 18;
169E : 69;
169F : 08;
16A0 : 88;
16A1 : d0;
16A2 : f6;
16A3 : 85;
16A4 : 0a;
16A5 : 38;
16A6 : e9;
16A7 : a8;
16A8 : 85;
16A9 : 09;
16AA : a9;
16AB : 48;
16AC : 38;
16AD : e5;
16AE : 09;
16AF : 85;
16B0 : 0b;
16B1 : b5;
16B2 : 64;
16B3 : c5;
16B4 : 0a;
16B5 : 90;
16B6 : 08;
16B7 : a5;
16B8 : 0a;
16B9 : 95;
16BA : 64;
16BB : a9;
16BC : 00;
16BD : f0;
16BE : 0a;
16BF : c5;
16C0 : 0b;
16C1 : b0;
16C2 : 08;
16C3 : a5;
16C4 : 0b;
16C5 : 95;
16C6 : 64;
16C7 : a9;
16C8 : 01;
16C9 : 95;
16CA : 62;
16CB : 60;
16CC : a9;
16CD : 02;
16CE : d5;
16CF : 6a;
16D0 : f0;
16D1 : 0a;
16D2 : 95;
16D3 : 6a;
16D4 : a9;
16D5 : 03;
16D6 : 95;
16D7 : e6;
16D8 : a9;
16D9 : 01;
16DA : 95;
16DB : e0;
16DC : fe;
16DD : 52;
16DE : 03;
16DF : 60;
16E0 : b5;
16E1 : e6;
16E2 : c9;
16E3 : 04;
16E4 : b0;
16E5 : 34;
16E6 : a0;
16E7 : 00;
16E8 : b9;
16E9 : e0;
16EA : 06;
16EB : 30;
16EC : 28;
16ED : d5;
16EE : 2a;
16EF : d0;
16F0 : 24;
16F1 : a5;
16F2 : 0b;
16F3 : 38;
16F4 : e9;
16F5 : 02;
16F6 : d9;
16F7 : c2;
16F8 : 06;
16F9 : b0;
16FA : 1a;
16FB : 69;
16FC : 04;
16FD : d9;
16FE : c2;
16FF : 06;
1700 : 90;
1701 : 13;
1702 : b9;
1703 : 68;
1704 : 06;
1705 : e9;
1706 : 0a;
1707 : d5;
1708 : 64;
1709 : b0;
170A : 0a;
170B : b9;
170C : 86;
170D : 06;
170E : 38;
170F : e9;
1710 : 06;
1711 : d5;
1712 : 64;
1713 : b0;
1714 : 06;
1715 : c8;
1716 : c0;
1717 : 1e;
1718 : d0;
1719 : ce;
171A : 60;
171B : a9;
171C : 04;
171D : 95;
171E : e6;
171F : a9;
1720 : 20;
1721 : 95;
1722 : e8;
1723 : 60;
1724 : a2;
1725 : 01;
1726 : b5;
1727 : 6a;
1728 : c9;
1729 : 06;
172A : f0;
172B : 20;
172C : b5;
172D : 66;
172E : c9;
172F : d4;
1730 : 90;
1731 : 1a;
1732 : a9;
1733 : f8;
1734 : 95;
1735 : 66;
1736 : a9;
1737 : 00;
1738 : 95;
1739 : 6a;
173A : 95;
173B : 5a;
173C : b5;
173D : 20;
173E : 30;
173F : 0c;
1740 : 8a;
1741 : 48;
1742 : bd;
1743 : bf;
1744 : cb;
1745 : a2;
1746 : 06;
1747 : 20;
1748 : 21;
1749 : c8;
174A : 68;
174B : aa;
174C : ca;
174D : 10;
174E : d7;
174F : a5;
1750 : 6a;
1751 : d0;
1752 : d0;
1753 : a5;
1754 : 6b;
1755 : d0;
1756 : cc;
1757 : 85;
1758 : 1e;
1759 : a9;
175A : 03;
175B : 4c;
175C : f5;
175D : d4;
175E : 80;
175F : 5d;
1760 : 3e;
1761 : 1f;
1762 : 02;
1763 : 00;
1764 : 18;
1765 : 30;
1766 : 48;
1767 : 60;
1768 : 78;
1769 : 90;
176A : a8;
176B : c0;
176C : d8;
176D : 2a;
176E : 29;
176F : 28;
1770 : 23;
1771 : 22;
1772 : 22;
1773 : 21;
1774 : 20;
1775 : 2b;
1776 : 20;
1777 : 60;
1778 : a0;
1779 : a0;
177A : e0;
177B : 20;
177C : 60;
177D : a0;
177E : a0;
177F : 00;
1780 : 01;
1781 : 02;
1782 : 03;
1783 : 04;
1784 : ff;
1785 : eb;
1786 : 90;
1787 : 91;
1788 : eb;
1789 : eb;
178A : 38;
178B : 2a;
178C : 29;
178D : 28;
178E : 28;
178F : 23;
1790 : 22;
1791 : 21;
1792 : 20;
1793 : 20;
1794 : 40;
1795 : 80;
1796 : c0;
1797 : 00;
1798 : 00;
1799 : 40;
179A : 80;
179B : c0;
179C : 00;
179D : eb;
179E : 90;
179F : 92;
17A0 : eb;
17A1 : eb;
17A2 : 38;
17A3 : 20;
17A4 : 20;
17A5 : 20;
17A6 : 28;
17A7 : 28;
17A8 : 28;
17A9 : 30;
17AA : 30;
17AB : 30;
17AC : 30;
17AD : e0;
17AE : e0;
17AF : e0;
17B0 : d8;
17B1 : d8;
17B2 : d8;
17B3 : d0;
17B4 : d0;
17B5 : d0;
17B6 : d0;
17B7 : 0c;
17B8 : 08;
17B9 : 0c;
17BA : 0c;
17BB : 0c;
17BC : 08;
17BD : 08;
17BE : 08;
17BF : 08;
17C0 : 08;
17C1 : 08;
17C2 : 04;
17C3 : 04;
17C4 : 04;
17C5 : 04;
17C6 : 04;
17C7 : 04;
17C8 : 0b;
17C9 : 10;
17CA : 0b;
17CB : 0b;
17CC : 0b;
17CD : 08;
17CE : 08;
17CF : 08;
17D0 : 08;
17D1 : 08;
17D2 : 08;
17D3 : 08;
17D4 : 0c;
17D5 : 08;
17D6 : 08;
17D7 : 08;
17D8 : 08;
17D9 : 08;
17DA : 08;
17DB : 06;
17DC : 06;
17DD : 06;
17DE : a5;
17DF : 8c;
17E0 : d0;
17E1 : 4c;
17E2 : a5;
17E3 : 3d;
17E4 : d0;
17E5 : 16;
17E6 : a5;
17E7 : 2c;
17E8 : f0;
17E9 : 07;
17EA : c6;
17EB : 2c;
17EC : a9;
17ED : ff;
17EE : 85;
17EF : 3d;
17F0 : 60;
17F1 : a5;
17F2 : 7c;
17F3 : d0;
17F4 : 03;
17F5 : e6;
17F6 : 7c;
17F7 : 60;
17F8 : c9;
17F9 : 80;
17FA : f0;
17FB : 1a;
17FC : a2;
17FD : 01;
17FE : b5;
17FF : 6a;
1800 : c9;
1801 : 01;
1802 : d0;
1803 : 06;
1804 : a5;
1805 : 90;
1806 : d5;
1807 : 5a;
1808 : f0;
1809 : 05;
180A : ca;
180B : 10;
180C : f1;
180D : 30;
180E : 1f;
180F : a9;
1810 : 01;
1811 : 8d;
1812 : 76;
1813 : 03;
1814 : d0;
1815 : 03;
1816 : 20;
1817 : 15;
1818 : e2;
1819 : a5;
181A : 90;
181B : c9;
181C : 09;
181D : f0;
181E : 0f;
181F : a9;
1820 : 0c;
1821 : 85;
1822 : 8b;
1823 : 85;
1824 : 8c;
1825 : e6;
1826 : 90;
1827 : a5;
1828 : 8a;
1829 : 18;
182A : 69;
182B : 06;
182C : 85;
182D : 8a;
182E : 60;
182F : a5;
1830 : 8c;
1831 : f0;
1832 : 54;
1833 : 20;
1834 : 7a;
1835 : e2;
1836 : 20;
1837 : 02;
1838 : e0;
1839 : 20;
183A : 51;
183B : ec;
183C : 20;
183D : 0f;
183E : d9;
183F : a2;
1840 : 00;
1841 : 20;
1842 : 11;
1843 : d1;
1844 : a2;
1845 : 01;
1846 : 20;
1847 : 11;
1848 : d1;
1849 : a5;
184A : 13;
184B : 38;
184C : e9;
184D : 04;
184E : 85;
184F : 13;
1850 : 20;
1851 : ea;
1852 : d8;
1853 : c6;
1854 : 8b;
1855 : d0;
1856 : 30;
1857 : a9;
1858 : 00;
1859 : 85;
185A : 8c;
185B : 20;
185C : fd;
185D : d8;
185E : 20;
185F : 3d;
1860 : e6;
1861 : a2;
1862 : 07;
1863 : e0;
1864 : 00;
1865 : f0;
1866 : 1d;
1867 : b5;
1868 : 91;
1869 : f0;
186A : 19;
186B : a5;
186C : 90;
186D : 38;
186E : f5;
186F : b2;
1870 : c9;
1871 : 04;
1872 : 90;
1873 : 10;
1874 : 20;
1875 : 88;
1876 : d8;
1877 : e0;
1878 : 02;
1879 : 90;
187A : 09;
187B : e0;
187C : 05;
187D : b0;
187E : 05;
187F : a9;
1880 : 00;
1881 : 9d;
1882 : 82;
1883 : 03;
1884 : ca;
1885 : 10;
1886 : dc;
1887 : 60;
1888 : 8a;
1889 : 18;
188A : 69;
188B : 83;
188C : 9d;
188D : e8;
188E : 03;
188F : 60;
1890 : a5;
1891 : 8c;
1892 : d0;
1893 : 11;
1894 : a2;
1895 : 01;
1896 : b5;
1897 : 6a;
1898 : c9;
1899 : 01;
189A : d0;
189B : 06;
189C : b5;
189D : 66;
189E : c9;
189F : 60;
18A0 : 90;
18A1 : 04;
18A2 : ca;
18A3 : 10;
18A4 : f1;
18A5 : 60;
18A6 : a5;
18A7 : 13;
18A8 : 05;
18A9 : 27;
18AA : f0;
18AB : f9;
18AC : 4c;
18AD : 1f;
18AE : d8;
18AF : a5;
18B0 : 8c;
18B1 : f0;
18B2 : f2;
18B3 : a5;
18B4 : 13;
18B5 : 38;
18B6 : e9;
18B7 : 04;
18B8 : 85;
18B9 : 13;
18BA : c9;
18BB : f0;
18BC : 90;
18BD : 0a;
18BE : a5;
18BF : 27;
18C0 : d0;
18C1 : 04;
18C2 : 85;
18C3 : 13;
18C4 : f0;
18C5 : 02;
18C6 : c6;
18C7 : 27;
18C8 : 20;
18C9 : ea;
18CA : d8;
18CB : 20;
18CC : 77;
18CD : e2;
18CE : 20;
18CF : 51;
18D0 : ec;
18D1 : 20;
18D2 : 0f;
18D3 : d9;
18D4 : a5;
18D5 : 13;
18D6 : f0;
18D7 : 04;
18D8 : c6;
18D9 : 8b;
18DA : d0;
18DB : c9;
18DC : a9;
18DD : 00;
18DE : 85;
18DF : 8c;
18E0 : a5;
18E1 : 24;
18E2 : 18;
18E3 : 69;
18E4 : 06;
18E5 : 85;
18E6 : 24;
18E7 : 4c;
18E8 : 73;
18E9 : e5;
18EA : a5;
18EB : 13;
18EC : 29;
18ED : f0;
18EE : c9;
18EF : f0;
18F0 : d0;
18F1 : 0a;
18F2 : a5;
18F3 : 13;
18F4 : 29;
18F5 : ef;
18F6 : 85;
18F7 : 13;
18F8 : e6;
18F9 : de;
18FA : c6;
18FB : 7a;
18FC : 60;
18FD : a4;
18FE : 56;
18FF : c0;
1900 : 04;
1901 : 90;
1902 : 02;
1903 : a0;
1904 : 04;
1905 : b9;
1906 : 5e;
1907 : d7;
1908 : 85;
1909 : 3d;
190A : a9;
190B : 01;
190C : 85;
190D : 2c;
190E : 60;
190F : a5;
1910 : 8d;
1911 : c5;
1912 : 8a;
1913 : b0;
1914 : f9;
1915 : 4c;
1916 : ec;
1917 : f2;
1918 : f8;
1919 : 08;
191A : 00;
191B : 05;
191C : 8a;
191D : 48;
191E : 98;
191F : 48;
1920 : 8a;
1921 : 0a;
1922 : 0a;
1923 : a8;
1924 : b9;
1925 : 1c;
1926 : 02;
1927 : 85;
1928 : 0b;
1929 : b9;
192A : 1f;
192B : 02;
192C : 85;
192D : 0a;
192E : b5;
192F : 62;
1930 : 85;
1931 : 0c;
1932 : 8a;
1933 : 48;
1934 : bd;
1935 : 1a;
1936 : d9;
1937 : aa;
1938 : bd;
1939 : 64;
193A : 03;
193B : c9;
193C : 63;
193D : b0;
193E : 03;
193F : fe;
1940 : 64;
1941 : 03;
1942 : 68;
1943 : aa;
1944 : a0;
1945 : 00;
1946 : b9;
1947 : d0;
1948 : 02;
1949 : c9;
194A : f8;
194B : f0;
194C : 0a;
194D : c8;
194E : c8;
194F : c8;
1950 : c8;
1951 : c0;
1952 : 18;
1953 : 90;
1954 : f1;
1955 : b0;
1956 : 51;
1957 : b5;
1958 : d7;
1959 : c9;
195A : 06;
195B : b0;
195C : 0a;
195D : c9;
195E : 03;
195F : 90;
1960 : 03;
1961 : 20;
1962 : ad;
1963 : d9;
1964 : a9;
1965 : 03;
1966 : 2c;
1967 : a9;
1968 : 02;
1969 : 99;
196A : d2;
196B : 02;
196C : a6;
196D : 0c;
196E : bd;
196F : 18;
1970 : d9;
1971 : 18;
1972 : 65;
1973 : 0a;
1974 : 99;
1975 : d3;
1976 : 02;
1977 : a5;
1978 : 0b;
1979 : 38;
197A : e9;
197B : 08;
197C : 99;
197D : d0;
197E : 02;
197F : a9;
1980 : 0b;
1981 : ae;
1982 : 3e;
1983 : 06;
1984 : d0;
1985 : 02;
1986 : a9;
1987 : 0a;
1988 : 99;
1989 : d1;
198A : 02;
198B : 98;
198C : 4a;
198D : 4a;
198E : a8;
198F : a9;
1990 : 00;
1991 : 99;
1992 : 50;
1993 : 06;
1994 : 99;
1995 : 40;
1996 : 06;
1997 : 99;
1998 : 60;
1999 : 06;
199A : a9;
199B : fe;
199C : 99;
199D : 48;
199E : 06;
199F : a5;
19A0 : 0c;
19A1 : d0;
19A2 : 02;
19A3 : a9;
19A4 : ff;
19A5 : 99;
19A6 : 58;
19A7 : 06;
19A8 : 68;
19A9 : a8;
19AA : 68;
19AB : aa;
19AC : 60;
19AD : ad;
19AE : 3f;
19AF : 06;
19B0 : 0d;
19B1 : 01;
19B2 : 03;
19B3 : d0;
19B4 : 0e;
19B5 : 8a;
19B6 : 48;
19B7 : a2;
19B8 : 0f;
19B9 : 20;
19BA : 91;
19BB : f6;
19BC : a9;
19BD : 01;
19BE : 8d;
19BF : 3f;
19C0 : 06;
19C1 : 68;
19C2 : aa;
19C3 : 60;
19C4 : 00;
19C5 : 40;
19C6 : c0;
19C7 : 80;
19C8 : 40;
19C9 : 00;
19CA : 80;
19CB : c0;
19CC : a0;
19CD : 14;
19CE : b9;
19CF : d0;
19D0 : 02;
19D1 : c9;
19D2 : f8;
19D3 : f0;
19D4 : 6f;
19D5 : 98;
19D6 : 4a;
19D7 : 4a;
19D8 : aa;
19D9 : bd;
19DA : 50;
19DB : 06;
19DC : 18;
19DD : 7d;
19DE : 40;
19DF : 06;
19E0 : 9d;
19E1 : 40;
19E2 : 06;
19E3 : b9;
19E4 : d0;
19E5 : 02;
19E6 : 7d;
19E7 : 48;
19E8 : 06;
19E9 : 99;
19EA : d0;
19EB : 02;
19EC : c9;
19ED : f4;
19EE : b0;
19EF : 4a;
19F0 : bd;
19F1 : 58;
19F2 : 06;
19F3 : 85;
19F4 : 03;
19F5 : 79;
19F6 : d3;
19F7 : 02;
19F8 : 99;
19F9 : d3;
19FA : 02;
19FB : fe;
19FC : 60;
19FD : 06;
19FE : 8a;
19FF : 48;
1A00 : bd;
1A01 : 60;
1A02 : 06;
1A03 : 29;
1A04 : 30;
1A05 : 4a;
1A06 : 4a;
1A07 : 4a;
1A08 : 4a;
1A09 : a6;
1A0A : 03;
1A0B : ca;
1A0C : f0;
1A0D : 03;
1A0E : 18;
1A0F : 69;
1A10 : 04;
1A11 : aa;
1A12 : b9;
1A13 : d2;
1A14 : 02;
1A15 : 29;
1A16 : 03;
1A17 : 1d;
1A18 : c4;
1A19 : d9;
1A1A : 99;
1A1B : d2;
1A1C : 02;
1A1D : 68;
1A1E : aa;
1A1F : bd;
1A20 : 48;
1A21 : 06;
1A22 : c9;
1A23 : 05;
1A24 : 10;
1A25 : 1e;
1A26 : bd;
1A27 : 50;
1A28 : 06;
1A29 : 18;
1A2A : 69;
1A2B : 40;
1A2C : 9d;
1A2D : 50;
1A2E : 06;
1A2F : bd;
1A30 : 48;
1A31 : 06;
1A32 : 69;
1A33 : 00;
1A34 : 9d;
1A35 : 48;
1A36 : 06;
1A37 : 4c;
1A38 : 44;
1A39 : da;
1A3A : a9;
1A3B : f8;
1A3C : 99;
1A3D : d0;
1A3E : 02;
1A3F : a9;
1A40 : 00;
1A41 : 99;
1A42 : d3;
1A43 : 02;
1A44 : 88;
1A45 : 88;
1A46 : 88;
1A47 : 88;
1A48 : 10;
1A49 : 84;
1A4A : 60;
1A4B : a2;
1A4C : 01;
1A4D : b5;
1A4E : 66;
1A4F : 18;
1A50 : 69;
1A51 : 0c;
1A52 : 20;
1A53 : f9;
1A54 : d1;
1A55 : a8;
1A56 : c0;
1A57 : 09;
1A58 : f0;
1A59 : 39;
1A5A : cc;
1A5B : 86;
1A5C : 07;
1A5D : f0;
1A5E : 05;
1A5F : cc;
1A60 : 87;
1A61 : 07;
1A62 : d0;
1A63 : 2f;
1A64 : b9;
1A65 : 2f;
1A66 : 06;
1A67 : c9;
1A68 : 01;
1A69 : d0;
1A6A : 28;
1A6B : b5;
1A6C : 64;
1A6D : 38;
1A6E : e9;
1A6F : 02;
1A70 : d9;
1A71 : a3;
1A72 : d7;
1A73 : 90;
1A74 : 12;
1A75 : 18;
1A76 : 69;
1A77 : 12;
1A78 : d9;
1A79 : ad;
1A7A : d7;
1A7B : 90;
1A7C : 16;
1A7D : b9;
1A7E : ad;
1A7F : d7;
1A80 : 38;
1A81 : e9;
1A82 : 10;
1A83 : a0;
1A84 : 00;
1A85 : f0;
1A86 : 08;
1A87 : b9;
1A88 : a3;
1A89 : d7;
1A8A : 38;
1A8B : e9;
1A8C : fe;
1A8D : a0;
1A8E : 01;
1A8F : 95;
1A90 : 64;
1A91 : 94;
1A92 : 62;
1A93 : ca;
1A94 : 10;
1A95 : b7;
1A96 : 60;
1A97 : fc;
1A98 : 0c;
1A99 : 20;
1A9A : c9;
1A9B : dd;
1A9C : 90;
1A9D : 35;
1A9E : a9;
1A9F : 00;
1AA0 : 95;
1AA1 : 80;
1AA2 : a9;
1AA3 : 04;
1AA4 : 85;
1AA5 : 00;
1AA6 : 20;
1AA7 : b2;
1AA8 : da;
1AA9 : 90;
1AAA : 29;
1AAB : b4;
1AAC : 62;
1AAD : b9;
1AAE : 97;
1AAF : da;
1AB0 : 85;
1AB1 : 00;
1AB2 : 20;
1AB3 : d5;
1AB4 : da;
1AB5 : b0;
1AB6 : 05;
1AB7 : a9;
1AB8 : 04;
1AB9 : 85;
1ABA : fc;
1ABB : 60;
1ABC : 20;
1ABD : b4;
1ABE : db;
1ABF : 94;
1AC0 : 5c;
1AC1 : a5;
1AC2 : 03;
1AC3 : 95;
1AC4 : 7d;
1AC5 : 20;
1AC6 : f2;
1AC7 : da;
1AC8 : b0;
1AC9 : ed;
1ACA : 20;
1ACB : 1c;
1ACC : d9;
1ACD : b5;
1ACE : 84;
1ACF : 09;
1AD0 : 01;
1AD1 : 95;
1AD2 : 84;
1AD3 : 18;
1AD4 : 60;
1AD5 : 8a;
1AD6 : 0a;
1AD7 : 0a;
1AD8 : a8;
1AD9 : b9;
1ADA : 1f;
1ADB : 02;
1ADC : 18;
1ADD : 65;
1ADE : 00;
1ADF : b4;
1AE0 : 5a;
1AE1 : c8;
1AE2 : c0;
1AE3 : 0a;
1AE4 : b0;
1AE5 : ed;
1AE6 : d9;
1AE7 : a3;
1AE8 : d7;
1AE9 : 90;
1AEA : e8;
1AEB : d9;
1AEC : ad;
1AED : d7;
1AEE : b0;
1AEF : e3;
1AF0 : 38;
1AF1 : 60;
1AF2 : a9;
1AF3 : 00;
1AF4 : 8d;
1AF5 : 3e;
1AF6 : 06;
1AF7 : b1;
1AF8 : 03;
1AF9 : f0;
1AFA : f5;
1AFB : c9;
1AFC : 03;
1AFD : 10;
1AFE : f1;
1AFF : c9;
1B00 : ff;
1B01 : f0;
1B02 : ed;
1B03 : c9;
1B04 : 02;
1B05 : d0;
1B06 : 07;
1B07 : 48;
1B08 : a9;
1B09 : 01;
1B0A : 8d;
1B0B : 3e;
1B0C : 06;
1B0D : 68;
1B0E : 18;
1B0F : 65;
1B10 : 02;
1B11 : 91;
1B12 : 03;
1B13 : c9;
1B14 : 03;
1B15 : 30;
1B16 : 04;
1B17 : a9;
1B18 : ff;
1B19 : 91;
1B1A : 03;
1B1B : 18;
1B1C : 60;
1B1D : 85;
1B1E : 08;
1B1F : d0;
1B20 : 0b;
1B21 : c0;
1B22 : 08;
1B23 : 90;
1B24 : 07;
1B25 : b9;
1B26 : 91;
1B27 : 00;
1B28 : c9;
1B29 : 02;
1B2A : f0;
1B2B : 05;
1B2C : b9;
1B2D : 91;
1B2E : 00;
1B2F : 10;
1B30 : 73;
1B31 : a5;
1B32 : 55;
1B33 : f0;
1B34 : 30;
1B35 : c9;
1B36 : 02;
1B37 : f0;
1B38 : 2c;
1B39 : c0;
1B3A : 08;
1B3B : b0;
1B3C : 28;
1B3D : b6;
1B3E : b2;
1B3F : a5;
1B40 : 08;
1B41 : d0;
1B42 : 11;
1B43 : b9;
1B44 : 9c;
1B45 : 00;
1B46 : 30;
1B47 : 03;
1B48 : a9;
1B49 : 10;
1B4A : 2c;
1B4B : a9;
1B4C : f8;
1B4D : 18;
1B4E : 79;
1B4F : 9c;
1B50 : 00;
1B51 : 4c;
1B52 : 57;
1B53 : db;
1B54 : b9;
1B55 : 9c;
1B56 : 00;
1B57 : 18;
1B58 : 79;
1B59 : bd;
1B5A : d7;
1B5B : dd;
1B5C : a3;
1B5D : d7;
1B5E : 90;
1B5F : 44;
1B60 : dd;
1B61 : ad;
1B62 : d7;
1B63 : b0;
1B64 : 3f;
1B65 : b9;
1B66 : 9c;
1B67 : 00;
1B68 : 18;
1B69 : 79;
1B6A : bd;
1B6B : d7;
1B6C : 38;
1B6D : e5;
1B6E : 0a;
1B6F : 85;
1B70 : 00;
1B71 : 20;
1B72 : f9;
1B73 : d2;
1B74 : 48;
1B75 : a5;
1B76 : 08;
1B77 : f0;
1B78 : 08;
1B79 : 68;
1B7A : d9;
1B7B : d3;
1B7C : d7;
1B7D : b0;
1B7E : 25;
1B7F : 90;
1B80 : 05;
1B81 : 68;
1B82 : c9;
1B83 : 0c;
1B84 : b0;
1B85 : 1e;
1B86 : b9;
1B87 : a7;
1B88 : 00;
1B89 : 18;
1B8A : 79;
1B8B : b7;
1B8C : d7;
1B8D : 38;
1B8E : e5;
1B8F : 0b;
1B90 : 20;
1B91 : f9;
1B92 : d2;
1B93 : 48;
1B94 : c0;
1B95 : 00;
1B96 : d0;
1B97 : 04;
1B98 : a5;
1B99 : 08;
1B9A : f0;
1B9B : 0a;
1B9C : 68;
1B9D : d9;
1B9E : c8;
1B9F : d7;
1BA0 : b0;
1BA1 : 02;
1BA2 : 38;
1BA3 : 60;
1BA4 : 18;
1BA5 : 60;
1BA6 : 68;
1BA7 : c9;
1BA8 : 10;
1BA9 : b0;
1BAA : f9;
1BAB : 90;
1BAC : f5;
1BAD : a9;
1BAE : ff;
1BAF : 60;
1BB0 : a0;
1BB1 : 05;
1BB2 : d0;
1BB3 : 02;
1BB4 : a0;
1BB5 : 04;
1BB6 : 84;
1BB7 : 04;
1BB8 : 85;
1BB9 : 00;
1BBA : a9;
1BBB : ff;
1BBC : 9d;
1BBD : 83;
1BBE : 07;
1BBF : a9;
1BC0 : 00;
1BC1 : 9d;
1BC2 : 43;
1BC3 : 03;
1BC4 : b4;
1BC5 : 5a;
1BC6 : b5;
1BC7 : 82;
1BC8 : f0;
1BC9 : 01;
1BCA : c8;
1BCB : 94;
1BCC : d7;
1BCD : c0;
1BCE : 0a;
1BCF : b0;
1BD0 : dc;
1BD1 : a5;
1BD2 : 00;
1BD3 : d9;
1BD4 : a3;
1BD5 : d7;
1BD6 : 90;
1BD7 : 7e;
1BD8 : d9;
1BD9 : ad;
1BDA : d7;
1BDB : b0;
1BDC : 79;
1BDD : a9;
1BDE : 02;
1BDF : 85;
1BE0 : 02;
1BE1 : a5;
1BE2 : 00;
1BE3 : 20;
1BE4 : bf;
1BE5 : ed;
1BE6 : 95;
1BE7 : d4;
1BE8 : b4;
1BE9 : d7;
1BEA : b9;
1BEB : 62;
1BEC : d7;
1BED : 85;
1BEE : 03;
1BEF : b5;
1BF0 : d4;
1BF1 : 38;
1BF2 : e9;
1BF3 : 04;
1BF4 : 48;
1BF5 : a8;
1BF6 : b1;
1BF7 : 03;
1BF8 : 10;
1BF9 : 03;
1BFA : fe;
1BFB : 43;
1BFC : 03;
1BFD : b5;
1BFE : d7;
1BFF : a0;
1C00 : 00;
1C01 : cd;
1C02 : 86;
1C03 : 07;
1C04 : f0;
1C05 : 06;
1C06 : c8;
1C07 : cd;
1C08 : 87;
1C09 : 07;
1C0A : d0;
1C0B : 41;
1C0C : 84;
1C0D : 00;
1C0E : b5;
1C0F : 6a;
1C10 : c9;
1C11 : 04;
1C12 : f0;
1C13 : 04;
1C14 : c9;
1C15 : 02;
1C16 : d0;
1C17 : 1c;
1C18 : b5;
1C19 : 68;
1C1A : f0;
1C1B : 18;
1C1C : b9;
1C1D : d7;
1C1E : 07;
1C1F : f0;
1C20 : 0a;
1C21 : b5;
1C22 : 68;
1C23 : c9;
1C24 : 01;
1C25 : d0;
1C26 : 0d;
1C27 : a9;
1C28 : 14;
1C29 : d0;
1C2A : 0b;
1C2B : b5;
1C2C : 68;
1C2D : c9;
1C2E : 02;
1C2F : d0;
1C30 : 03;
1C31 : a9;
1C32 : 04;
1C33 : 2c;
1C34 : a9;
1C35 : 09;
1C36 : 18;
1C37 : 75;
1C38 : 64;
1C39 : d9;
1C3A : 88;
1C3B : 07;
1C3C : 90;
1C3D : 05;
1C3E : d9;
1C3F : 8a;
1C40 : 07;
1C41 : 90;
1C42 : 16;
1C43 : d9;
1C44 : 8c;
1C45 : 07;
1C46 : 90;
1C47 : 05;
1C48 : d9;
1C49 : 8e;
1C4A : 07;
1C4B : 90;
1C4C : 0c;
1C4D : b5;
1C4E : 2d;
1C4F : d0;
1C50 : 0d;
1C51 : 68;
1C52 : a8;
1C53 : b1;
1C54 : 03;
1C55 : 60;
1C56 : a9;
1C57 : 00;
1C58 : 60;
1C59 : a5;
1C5A : 00;
1C5B : 9d;
1C5C : 83;
1C5D : 07;
1C5E : 68;
1C5F : a8;
1C60 : b1;
1C61 : 03;
[...]
78E7 : 03;
78E8 : b9;
78E9 : bc;
78EA : f7;
78EB : 29;
78EC : 04;
78ED : f0;
78EE : 02;
78EF : a9;
78F0 : 1f;
78F1 : 8d;
78F2 : b1;
78F3 : 03;
78F4 : a5;
78F5 : 9c;
78F6 : c9;
78F7 : 0f;
78F8 : 90;
78F9 : 17;
78FA : c9;
78FB : f1;
78FC : b0;
78FD : 13;
78FE : a5;
78FF : a7;
7900 : c9;
7901 : f0;
7902 : b0;
7903 : 0d;
7904 : ac;
7905 : bc;
7906 : 03;
7907 : 30;
7908 : d9;
7909 : b9;
790A : bc;
790B : f7;
790C : c9;
790D : ff;
790E : d0;
790F : 09;
7910 : 2c;
7911 : a9;
7912 : ff;
7913 : 48;
7914 : a9;
7915 : 02;
7916 : 85;
7917 : 91;
7918 : 68;
7919 : 85;
791A : b2;
791B : 60;
791C : ff;
791D : ff;
791E : a9;
791F : ff;
7920 : 8d;
7921 : 17;
7922 : 40;
7923 : 20;
7924 : eb;
7925 : f9;
7926 : 20;
7927 : c4;
7928 : fa;
7929 : 20;
792A : a1;
792B : fb;
792C : 20;
792D : fc;
792E : fb;
792F : a9;
7930 : 00;
7931 : 85;
7932 : ff;
7933 : 85;
7934 : fe;
7935 : 85;
7936 : fc;
7937 : 85;
7938 : fb;
7939 : ac;
793A : 11;
793B : 07;
793C : a5;
793D : f3;
793E : 29;
793F : 0c;
7940 : f0;
7941 : 07;
7942 : ee;
7943 : 11;
7944 : 07;
7945 : c0;
7946 : 30;
7947 : 90;
7948 : 06;
7949 : 98;
794A : f0;
794B : 03;
794C : ce;
794D : 11;
794E : 07;
794F : 8c;
7950 : 11;
7951 : 40;
7952 : 60;
7953 : 8e;
7954 : 00;
7955 : 40;
7956 : 8c;
7957 : 01;
7958 : 40;
7959 : 60;
795A : 8e;
795B : 04;
795C : 40;
795D : 8c;
795E : 05;
795F : 40;
7960 : 60;
7961 : 20;
7962 : 53;
7963 : f9;
7964 : a2;
7965 : 00;
7966 : a8;
7967 : b9;
7968 : 01;
7969 : ff;
796A : f0;
796B : 0b;
796C : 9d;
796D : 02;
796E : 40;
796F : b9;
7970 : 00;
7971 : ff;
7972 : 09;
7973 : 08;
7974 : 9d;
7975 : 03;
7976 : 40;
7977 : 60;
7978 : 20;
7979 : 5a;
797A : f9;
797B : a2;
797C : 04;
797D : d0;
797E : e7;
797F : a2;
7980 : 08;
7981 : d0;
7982 : e3;
7983 : aa;
7984 : 6a;
7985 : 8a;
7986 : 2a;
7987 : 2a;
7988 : 2a;
7989 : 29;
798A : 07;
798B : 18;
798C : 65;
798D : f5;
798E : a8;
798F : b9;
7990 : 40;
7991 : ff;
7992 : 60;
7993 : 98;
7994 : 5a;
7995 : 99;
7996 : 9b;
7997 : 5a;
7998 : 5c;
7999 : 9b;
799A : 5d;
799B : 9c;
799C : 9e;
799D : 5d;
799E : 5f;
799F : bf;
79A0 : be;
79A1 : aa;
79A2 : a9;
79A3 : 98;
79A4 : 97;
79A5 : 87;
79A6 : 86;
79A7 : 78;
79A8 : 77;
79A9 : 6b;
79AA : 6a;
79AB : 84;
79AC : f0;
79AD : a9;
79AE : 2f;
79AF : 85;
79B0 : f4;
79B1 : a5;
79B2 : f4;
79B3 : 4a;
79B4 : 4a;
79B5 : a8;
79B6 : b9;
79B7 : 9f;
79B8 : f9;
79B9 : 8d;
79BA : 02;
79BB : 40;
79BC : a9;
79BD : 08;
79BE : 8d;
79BF : 03;
79C0 : 40;
79C1 : be;
79C2 : 93;
79C3 : f9;
79C4 : a0;
79C5 : 81;
79C6 : d0;
79C7 : 67;
79C8 : 84;
79C9 : f0;
79CA : a9;
79CB : 20;
79CC : 85;
79CD : f4;
79CE : d0;
79CF : 06;
79D0 : a5;
79D1 : f4;
79D2 : c9;
79D3 : 1b;
79D4 : d0;
79D5 : 5c;
79D6 : a2;
79D7 : 88;
79D8 : a0;
79D9 : d3;
79DA : a9;
79DB : 00;
79DC : 20;
79DD : 61;
79DE : f9;
79DF : a9;
79E0 : 20;
79E1 : 20;
79E2 : 7f;
79E3 : f9;
79E4 : a9;
79E5 : 1c;
79E6 : 8d;
79E7 : 08;
79E8 : 40;
79E9 : d0;
79EA : 47;
79EB : a4;
79EC : ff;
79ED : a5;
79EE : f0;
79EF : 46;
79F0 : ff;
79F1 : b0;
79F2 : b8;
79F3 : 4a;
79F4 : b0;
79F5 : bb;
79F6 : 46;
79F7 : ff;
79F8 : b0;
79F9 : ce;
79FA : 4a;
79FB : b0;
79FC : d3;
79FD : 46;
79FE : ff;
79FF : b0;
7A00 : 0b;
7A01 : 4a;
7A02 : b0;
7A03 : 17;
7A04 : 46;
7A05 : ff;
7A06 : b0;
7A07 : 38;
7A08 : 4a;
7A09 : b0;
7A0A : 3f;
7A0B : 60;
7A0C : 84;
7A0D : f0;
7A0E : a9;
7A0F : 28;
7A10 : 85;
7A11 : f4;
7A12 : a2;
7A13 : 9a;
7A14 : a0;
7A15 : a7;
7A16 : a9;
7A17 : 36;
7A18 : 20;
7A19 : 61;
7A1A : f9;
7A1B : a5;
7A1C : f4;
7A1D : c9;
7A1E : 25;
7A1F : d0;
7A20 : 06;
7A21 : a2;
7A22 : 47;
7A23 : a0;
7A24 : f6;
7A25 : d0;
7A26 : 08;
7A27 : c9;
7A28 : 20;
7A29 : d0;
7A2A : 07;
7A2B : a0;
7A2C : bc;
7A2D : a2;
7A2E : 4c;
7A2F : 20;
7A30 : 53;
7A31 : f9;
7A32 : c6;
7A33 : f4;
7A34 : d0;
7A35 : 09;
7A36 : a9;
7A37 : 00;
7A38 : 85;
7A39 : f0;
7A3A : a9;
7A3B : 90;
7A3C : 8d;
7A3D : 00;
7A3E : 40;
7A3F : 60;
7A40 : 84;
7A41 : f0;
7A42 : a9;
7A43 : 0b;
7A44 : 85;
7A45 : f4;
7A46 : a9;
7A47 : 57;
7A48 : d0;
7A49 : 08;
7A4A : a5;
7A4B : f4;
7A4C : c9;
7A4D : 07;
7A4E : d0;
7A4F : e2;
7A50 : a9;
7A51 : 02;
7A52 : 8d;
7A53 : 02;
7A54 : 40;
7A55 : a9;
7A56 : 3b;
7A57 : 8d;
7A58 : 03;
7A59 : 40;
7A5A : a2;
7A5B : bd;
7A5C : a0;
7A5D : 8a;
7A5E : d0;
7A5F : cf;
7A60 : 20;
7A61 : 1e;
7A62 : 1c;
7A63 : 1a;
7A64 : 84;
7A65 : f1;
7A66 : a9;
7A67 : 30;
7A68 : 8d;
7A69 : 12;
7A6A : 07;
7A6B : ad;
7A6C : 12;
7A6D : 07;
7A6E : a2;
7A6F : 03;
7A70 : 4a;
7A71 : b0;
7A72 : 42;
7A73 : ca;
7A74 : d0;
7A75 : fa;
7A76 : a8;
7A77 : b9;
7A78 : 5f;
7A79 : fa;
7A7A : a0;
7A7B : 8b;
7A7C : a2;
7A7D : b8;
7A7E : 20;
7A7F : 78;
7A80 : f9;
7A81 : d0;
7A82 : 32;
7A83 : 84;
7A84 : f1;
7A85 : a9;
7A86 : 5e;
7A87 : 8d;
7A88 : 12;
7A89 : 07;
7A8A : a9;
7A8B : 91;
7A8C : 8d;
7A8D : 09;
7A8E : 07;
7A8F : a9;
7A90 : 3c;
7A91 : 20;
7A92 : 7b;
7A93 : f9;
7A94 : ad;
7A95 : 09;
7A96 : 07;
7A97 : 8d;
7A98 : 04;
7A99 : 40;
7A9A : c9;
7A9B : 95;
7A9C : f0;
7A9D : 03;
7A9E : ee;
7A9F : 09;
7AA0 : 07;
7AA1 : ad;
7AA2 : 12;
7AA3 : 07;
7AA4 : 29;
7AA5 : 07;
7AA6 : d0;
7AA7 : 04;
7AA8 : a9;
7AA9 : 9f;
7AAA : d0;
7AAB : 06;
7AAC : c9;
7AAD : 06;
7AAE : d0;
7AAF : 05;
7AB0 : a9;
7AB1 : a3;
7AB2 : 8d;
7AB3 : 05;
7AB4 : 40;
7AB5 : ce;
7AB6 : 12;
7AB7 : 07;
7AB8 : d0;
7AB9 : 09;
7ABA : a9;
7ABB : 00;
7ABC : 85;
7ABD : f1;
7ABE : a9;
7ABF : 90;
7AC0 : 8d;
7AC1 : 04;
7AC2 : 40;
7AC3 : 60;
7AC4 : a4;
7AC5 : fe;
7AC6 : a5;
7AC7 : f1;
7AC8 : 46;
7AC9 : fe;
7ACA : b0;
7ACB : 98;
7ACC : 4a;
7ACD : b0;
7ACE : 9c;
7ACF : 46;
7AD0 : fe;
7AD1 : b0;
7AD2 : b0;
7AD3 : 4a;
7AD4 : b0;
7AD5 : be;
7AD6 : 46;
7AD7 : fe;
7AD8 : b0;
7AD9 : 12;
7ADA : 4a;
7ADB : b0;
7ADC : d8;
7ADD : 4a;
7ADE : b0;
7ADF : 29;
7AE0 : 46;
7AE1 : fe;
7AE2 : b0;
7AE3 : 15;
7AE4 : 46;
7AE5 : fe;
7AE6 : b0;
7AE7 : 2f;
7AE8 : 4a;
7AE9 : b0;
7AEA : ca;
7AEB : 60;
7AEC : 84;
7AED : f1;
7AEE : a9;
7AEF : 20;
7AF0 : 8d;
7AF1 : 12;
7AF2 : 07;
7AF3 : a9;
7AF4 : 18;
7AF5 : a0;
7AF6 : b3;
7AF7 : d0;
7AF8 : 83;
7AF9 : 84;
7AFA : f1;
7AFB : a9;
7AFC : 08;
7AFD : 8d;
7AFE : 12;
7AFF : 07;
7B00 : a2;
7B01 : 1f;
7B02 : a0;
7B03 : 7f;
7B04 : a9;
7B05 : 04;
7B06 : 20;
7B07 : 78;
7B08 : f9;
7B09 : ad;
7B0A : 12;
7B0B : 07;
7B0C : c9;
7B0D : 04;
7B0E : d0;
7B0F : a5;
7B10 : a9;
7B11 : a9;
7B12 : 8d;
7B13 : 06;
7B14 : 40;
7B15 : d0;
7B16 : 9e;
7B17 : 84;
7B18 : f1;
7B19 : a9;
7B1A : 18;
7B1B : 8d;
7B1C : 12;
7B1D : 07;
7B1E : a2;
7B1F : 1f;
7B20 : a0;
7B21 : 92;
7B22 : a9;
7B23 : 3e;
7B24 : 20;
7B25 : 78;
7B26 : f9;
7B27 : a9;
7B28 : 08;
7B29 : 8d;
7B2A : 07;
7B2B : 40;
7B2C : ad;
7B2D : 12;
7B2E : 07;
7B2F : c9;
7B30 : 10;
7B31 : d0;
7B32 : 05;
7B33 : a9;
7B34 : 32;
7B35 : 8d;
7B36 : 06;
7B37 : 40;
7B38 : 4c;
7B39 : b5;
7B3A : fa;
7B3B : 16;
7B3C : 10;
7B3D : 17;
7B3E : 18;
7B3F : 19;
7B40 : 1a;
7B41 : 1b;
7B42 : 1f;
7B43 : 1f;
7B44 : 1f;
7B45 : 1f;
7B46 : 1c;
7B47 : 1a;
7B48 : 17;
7B49 : 15;
7B4A : 14;
7B4B : 02;
7B4C : 04;
7B4D : 06;
7B4E : 08;
7B4F : 0a;
7B50 : 0b;
7B51 : 0c;
7B52 : 0d;
7B53 : 10;
7B54 : 14;
7B55 : 19;
7B56 : 1b;
7B57 : 1d;
7B58 : 1f;
7B59 : 1f;
7B5A : 13;
7B5B : 15;
7B5C : 1a;
7B5D : 1c;
7B5E : 1e;
7B5F : 1f;
7B60 : 1f;
7B61 : 1f;
7B62 : 1f;
7B63 : 06;
7B64 : 0a;
7B65 : 0b;
7B66 : 09;
7B67 : 0c;
7B68 : 0f;
7B69 : 0e;
7B6A : 0f;
7B6B : 10;
7B6C : 1f;
7B6D : 1f;
7B6E : 1f;
7B6F : 09;
7B70 : 0b;
7B71 : 84;
7B72 : f2;
7B73 : a9;
7B74 : 7f;
7B75 : 8d;
7B76 : 0e;
7B77 : 07;
7B78 : ad;
7B79 : 0e;
7B7A : 07;
7B7B : 4a;
7B7C : 4a;
7B7D : 4a;
7B7E : 4a;
7B7F : a8;
7B80 : be;
7B81 : 4b;
7B82 : fb;
7B83 : ad;
7B84 : 0e;
7B85 : 07;
7B86 : 29;
7B87 : 0f;
7B88 : a8;
7B89 : b9;
7B8A : 3b;
7B8B : fb;
7B8C : 8d;
7B8D : 0c;
7B8E : 40;
7B8F : 8e;
7B90 : 0e;
7B91 : 40;
7B92 : a9;
7B93 : 08;
7B94 : 8d;
7B95 : 0f;
7B96 : 40;
7B97 : ce;
7B98 : 0e;
7B99 : 07;
7B9A : d0;
7B9B : 04;
7B9C : a9;
7B9D : 00;
7B9E : 85;
7B9F : f2;
7BA0 : 60;
7BA1 : a4;
7BA2 : fc;
7BA3 : a5;
7BA4 : f2;
7BA5 : 46;
7BA6 : fc;
7BA7 : b0;
7BA8 : c8;
7BA9 : 4a;
7BAA : b0;
7BAB : cc;
7BAC : 46;
7BAD : fc;
7BAE : b0;
7BAF : 0b;
7BB0 : 4a;
7BB1 : b0;
7BB2 : 18;
7BB3 : 46;
7BB4 : fc;
7BB5 : b0;
7BB6 : 24;
7BB7 : 4a;
7BB8 : b0;
7BB9 : 31;
7BBA : 60;
7BBB : 84;
7BBC : f2;
7BBD : a9;
7BBE : 10;
7BBF : 8d;
7BC0 : 0e;
7BC1 : 07;
7BC2 : a5;
7BC3 : f0;
7BC4 : c9;
7BC5 : 04;
7BC6 : d0;
7BC7 : 03;
7BC8 : 20;
7BC9 : 36;
7BCA : fa;
7BCB : ad;
7BCC : 0e;
7BCD : 07;
7BCE : 4a;
7BCF : a8;
7BD0 : be;
7BD1 : 62;
7BD2 : fb;
7BD3 : ac;
7BD4 : 0e;
7BD5 : 07;
7BD6 : b9;
7BD7 : 52;
7BD8 : fb;
7BD9 : d0;
7BDA : b1;
7BDB : 84;
7BDC : f2;
7BDD : a9;
7BDE : 04;
7BDF : 8d;
7BE0 : 0e;
7BE1 : 07;
7BE2 : a5;
7BE3 : f0;
7BE4 : c9;
7BE5 : 04;
7BE6 : d0;
7BE7 : 03;
7BE8 : 20;
7BE9 : 36;
7BEA : fa;
7BEB : ad;
7BEC : 0e;
7BED : 07;
7BEE : 4a;
7BEF : a8;
7BF0 : be;
7BF1 : 6e;
7BF2 : fb;
7BF3 : ac;
7BF4 : 0e;
7BF5 : 07;
7BF6 : b9;
7BF7 : 6a;
7BF8 : fb;
7BF9 : 4c;
7BFA : 8c;
7BFB : fb;
7BFC : a5;
7BFD : fb;
7BFE : d0;
7BFF : 05;
7C00 : a5;
7C01 : f3;
7C02 : d0;
7C03 : 4d;
7C04 : 60;
7C05 : c9;
7C06 : 20;
7C07 : d0;
7C08 : 08;
7C09 : a5;
7C0A : f3;
7C0B : 29;
7C0C : 0e;
7C0D : 85;
7C0E : fd;
7C0F : a5;
7C10 : fb;
7C11 : 85;
7C12 : f3;
7C13 : a0;
7C14 : 00;
7C15 : 84;
7C16 : f8;
7C17 : c8;
7C18 : 4a;
7C19 : 90;
7C1A : fc;
7C1B : b9;
7C1C : 21;
7C1D : fd;
7C1E : a8;
7C1F : b9;
7C20 : 22;
7C21 : fd;
7C22 : 85;
7C23 : f5;
7C24 : b9;
7C25 : 23;
7C26 : fd;
7C27 : 85;
7C28 : f6;
7C29 : b9;
7C2A : 24;
7C2B : fd;
7C2C : 85;
7C2D : f7;
7C2E : b9;
7C2F : 25;
7C30 : fd;
7C31 : 85;
7C32 : fa;
7C33 : b9;
7C34 : 26;
7C35 : fd;
7C36 : 85;
7C37 : f9;
7C38 : b9;
7C39 : 27;
7C3A : fd;
7C3B : 8d;
7C3C : 05;
7C3D : 07;
7C3E : a9;
7C3F : 01;
7C40 : 8d;
7C41 : 01;
7C42 : 07;
7C43 : 8d;
7C44 : 03;
7C45 : 07;
7C46 : 8d;
7C47 : 04;
7C48 : 07;
7C49 : 8d;
7C4A : 06;
7C4B : 07;
7C4C : a9;
7C4D : 7f;
7C4E : 8d;
7C4F : 00;
7C50 : 07;
7C51 : ce;
7C52 : 01;
7C53 : 07;
7C54 : d0;
7C55 : 56;
7C56 : a4;
7C57 : f8;
7C58 : e6;
7C59 : f8;
7C5A : b1;
7C5B : f6;
7C5C : d0;
7C5D : 26;
7C5E : a5;
7C5F : f3;
7C60 : c9;
7C61 : 40;
7C62 : d0;
7C63 : 04;
7C64 : a5;
7C65 : fd;
7C66 : d0;
7C67 : a9;
7C68 : c9;
7C69 : 02;
7C6A : f0;
7C6B : a5;
7C6C : 29;
7C6D : 0c;
7C6E : f0;
7C6F : 09;
7C70 : 4a;
7C71 : c9;
7C72 : 04;
7C73 : f0;
7C74 : 9c;
7C75 : a9;
7C76 : 08;
7C77 : d0;
7C78 : 98;
7C79 : a9;
7C7A : 00;
7C7B : 85;
7C7C : f3;
7C7D : 20;
7C7E : 3a;
7C7F : fa;
7C80 : 8d;
7C81 : 04;
7C82 : 40;
7C83 : 60;
7C84 : 20;
7C85 : 83;
7C86 : f9;
7C87 : 8d;
7C88 : 01;
7C89 : 07;
7C8A : a5;
7C8B : f1;
7C8C : d0;
7C8D : 36;
7C8E : 8a;
7C8F : 29;
7C90 : 3e;
7C91 : 20;
7C92 : 7b;
7C93 : f9;
7C94 : a8;
7C95 : f0;
7C96 : 02;
7C97 : a0;
7C98 : 1f;
7C99 : 8c;
7C9A : 02;
7C9B : 07;
7C9C : a2;
7C9D : 84;
7C9E : ad;
7C9F : 01;
7CA0 : 07;
7CA1 : c9;
7CA2 : 10;
7CA3 : b0;
7CA4 : 02;
7CA5 : a2;
7CA6 : 82;
7CA7 : a0;
7CA8 : 7f;
7CA9 : 20;
7CAA : 5a;
7CAB : f9;
7CAC : a5;
7CAD : f1;
7CAE : d0;
7CAF : 14;
7CB0 : a5;
7CB1 : f3;
7CB2 : 29;
7CB3 : 0c;
7CB4 : f0;
7CB5 : 0e;
7CB6 : ac;
7CB7 : 02;
7CB8 : 07;
7CB9 : f0;
7CBA : 03;
7CBB : ce;
7CBC : 02;
7CBD : 07;
7CBE : b9;
7CBF : d9;
7CC0 : ff;
7CC1 : 8d;
7CC2 : 04;
7CC3 : 40;
7CC4 : a4;
7CC5 : f9;
7CC6 : f0;
7CC7 : 32;
7CC8 : ce;
7CC9 : 03;
7CCA : 07;
7CCB : d0;
7CCC : 2d;
7CCD : a4;
7CCE : f9;
7CCF : e6;
7CD0 : f9;
7CD1 : b1;
7CD2 : f6;
7CD3 : d0;
7CD4 : 0b;
7CD5 : a4;
7CD6 : f9;
7CD7 : e6;
7CD8 : f9;
7CD9 : b1;
7CDA : f6;
7CDB : 8d;
7CDC : 00;
7CDD : 07;
7CDE : d0;
7CDF : ed;
7CE0 : 20;
7CE1 : 83;
7CE2 : f9;
7CE3 : 8d;
7CE4 : 03;
7CE5 : 07;
7CE6 : 8a;
7CE7 : 29;
7CE8 : 3e;
7CE9 : 20;
7CEA : 64;
7CEB : f9;
7CEC : d0;
7CED : 04;
7CEE : a2;
7CEF : 10;
7CF0 : d0;
7CF1 : 02;
7CF2 : a2;
7CF3 : 06;
7CF4 : ac;
7CF5 : 00;
7CF6 : 07;
7CF7 : 20;
7CF8 : 53;
7CF9 : f9;
7CFA : a4;
7CFB : fa;
7CFC : f0;
7CFD : 23;
7CFE : ce;
7CFF : 04;
7D00 : 07;
7D01 : d0;
7D02 : 1e;
7D03 : e6;
7D04 : fa;
7D05 : b1;
7D06 : f6;
7D07 : 20;
7D08 : 83;
7D09 : f9;
7D0A : 8d;
7D0B : 04;
7D0C : 07;
7D0D : 18;
7D0E : 69;
7D0F : fe;
7D10 : c9;
7D11 : 0e;
7D12 : 90;
7D13 : 02;
7D14 : a9;
7D15 : 0e;
7D16 : 0a;
7D17 : 0a;
7D18 : 8d;
7D19 : 08;
7D1A : 40;
7D1B : 8a;
7D1C : 29;
7D1D : 3e;
7D1E : 20;
7D1F : 7f;
7D20 : f9;
7D21 : 60;
7D22 : 21;
7D23 : 08;
7D24 : 0d;
7D25 : 12;
7D26 : 26;
7D27 : 17;
7D28 : 17;
7D29 : 1c;
7D2A : 06;
7D2B : 4a;
7D2C : fe;
7D2D : 09;
7D2E : 00;
7D2F : 06;
7D30 : 4d;
7D31 : fd;
7D32 : 82;
7D33 : 42;
7D34 : 06;
7D35 : ef;
7D36 : fd;
7D37 : 49;
7D38 : 25;
7D39 : 00;
7D3A : d2;
7D3B : ff;
7D3C : 00;
7D3D : 00;
7D3E : 00;
7D3F : d8;
7D40 : ff;
7D41 : 00;
7D42 : 00;
7D43 : 06;
7D44 : b9;
7D45 : fe;
7D46 : 95;
7D47 : 24;
7D48 : 06;
7D49 : 71;
7D4A : ff;
7D4B : 40;
7D4C : 28;
7D4D : 42;
7D4E : 02;
7D4F : 04;
7D50 : 82;
7D51 : 04;
7D52 : 30;
7D53 : 04;
7D54 : 30;
7D55 : 44;
7D56 : 02;
7D57 : 04;
7D58 : 4b;
7D59 : 84;
7D5A : 02;
7D5B : 28;
7D5C : af;
7D5D : e9;
7D5E : ef;
7D5F : 42;
7D60 : 02;
7D61 : 04;
7D62 : 82;
7D63 : 84;
7D64 : 44;
7D65 : 02;
7D66 : 04;
7D67 : 4b;
7D68 : 84;
7D69 : 02;
7D6A : 28;
7D6B : af;
7D6C : e9;
7D6D : ef;
7D6E : 82;
7D6F : 45;
7D70 : 6d;
7D71 : 8a;
7D72 : 48;
7D73 : 02;
7D74 : 04;
7D75 : 6e;
7D76 : 02;
7D77 : 28;
7D78 : 66;
7D79 : 02;
7D7A : 24;
7D7B : 60;
7D7C : 02;
7D7D : e2;
7D7E : 28;
7D7F : ab;
7D80 : ed;
7D81 : c5;
7D82 : 91;
7D83 : cf;
7D84 : cb;
7D85 : 85;
7D86 : ef;
7D87 : e9;
7D88 : a7;
7D89 : e5;
7D8A : e1;
7D8B : 9b;
7D8C : e1;
7D8D : e5;
7D8E : 00;
7D8F : 42;
7D90 : 02;
7D91 : 22;
7D92 : 82;
7D93 : a2;
7D94 : 62;
7D95 : 02;
7D96 : 22;
7D97 : 63;
7D98 : a2;
7D99 : 02;
7D9A : 1e;
7D9B : a5;
7D9C : df;
7D9D : e5;
7D9E : 42;
7D9F : 02;
7DA0 : 22;
7DA1 : 82;
7DA2 : a2;
7DA3 : 62;
7DA4 : 02;
7DA5 : 22;
7DA6 : 63;
7DA7 : a2;
7DA8 : 02;
7DA9 : 1e;
7DAA : a5;
7DAB : df;
7DAC : e5;
7DAD : 82;
7DAE : 61;
7DAF : 61;
7DB0 : ac;
7DB1 : 6c;
7DB2 : 02;
7DB3 : 2c;
7DB4 : 68;
7DB5 : 02;
7DB6 : 24;
7DB7 : 60;
7DB8 : 02;
7DB9 : 1e;
7DBA : 5a;
7DBB : 02;
7DBC : 1a;
7DBD : 43;
7DBE : 02;
7DBF : 24;
7DC0 : a5;
7DC1 : e7;
7DC2 : ed;
7DC3 : 8b;
7DC4 : c9;
7DC5 : c5;
7DC6 : ad;
7DC7 : e9;
7DC8 : e1;
7DC9 : a1;
7DCA : df;
7DCB : db;
7DCC : b3;
7DCD : db;
7DCE : df;
7DCF : 9a;
7DD0 : a2;
7DD1 : a8;
7DD2 : ac;
7DD3 : ae;
7DD4 : ac;
7DD5 : a8;
7DD6 : a2;
7DD7 : 9a;
7DD8 : a2;
7DD9 : a8;
7DDA : ac;
7DDB : ae;
7DDC : ac;
7DDD : a8;
7DDE : a2;
7DDF : a4;
7DE0 : ac;
7DE1 : 84;
7DE2 : 88;
7DE3 : 8a;
7DE4 : 88;
7DE5 : 84;
7DE6 : ac;
7DE7 : 9a;
7DE8 : a2;
7DE9 : a8;
7DEA : ac;
7DEB : ae;
7DEC : ac;
7DED : a8;
7DEE : a2;
7DEF : a7;
7DF0 : e9;
7DF1 : e9;
7DF2 : a7;
7DF3 : e9;
7DF4 : e9;
7DF5 : 87;
7DF6 : c9;
7DF7 : c9;
7DF8 : 87;
7DF9 : c9;
7DFA : c9;
7DFB : 92;
7DFC : 8e;
7DFD : 4a;
7DFE : 02;
7DFF : 84;
7E00 : 04;
7E01 : 44;
7E02 : 02;
7E03 : a2;
7E04 : 02;
7E05 : a4;
7E06 : a6;
7E07 : a9;
7E08 : e7;
7E09 : e9;
7E0A : ab;
7E0B : e9;
7E0C : eb;
7E0D : ad;
7E0E : eb;
7E0F : ed;
7E10 : b1;
7E11 : ed;
7E12 : f1;
7E13 : 00;
7E14 : 9f;
7E15 : df;
7E16 : df;
7E17 : 9f;
7E18 : df;
7E19 : df;
7E1A : a7;
7E1B : e7;
7E1C : e7;
7E1D : ad;
7E1E : ed;
7E1F : ed;
7E20 : 88;
7E21 : 88;
7E22 : 44;
7E23 : 02;
7E24 : ac;
7E25 : 2c;
7E26 : 68;
7E27 : 02;
7E28 : 9a;
7E29 : 02;
7E2A : 9e;
7E2B : a0;
7E2C : bb;
7E2D : f9;
7E2E : fb;
7E2F : 9b;
7E30 : fb;
7E31 : db;
7E32 : 9d;
7E33 : db;
7E34 : dd;
7E35 : a9;
7E36 : e5;
7E37 : e9;
7E38 : a8;
7E39 : b0;
7E3A : 88;
7E3B : 90;
7E3C : 98;
7E3D : 98;
7E3E : 54;
7E3F : 02;
7E40 : 8e;
7E41 : 0e;
7E42 : 9a;
7E43 : a2;
7E44 : a4;
7E45 : a6;
7E46 : a8;
7E47 : aa;
7E48 : ac;
7E49 : b0;
7E4A : 03;
7E4B : 03;
7E4C : 03;
7E4D : 03;
7E4E : 03;
7E4F : 03;
7E50 : 03;
7E51 : 03;
7E52 : 00;
7E53 : 68;
7E54 : 02;
7E55 : 22;
7E56 : 64;
7E57 : 02;
7E58 : 28;
7E59 : 42;
7E5A : 02;
7E5B : 04;
7E5C : 30;
7E5D : 04;
7E5E : 30;
7E5F : 04;
7E60 : 68;
7E61 : 02;
7E62 : 22;
7E63 : 64;
7E64 : 02;
7E65 : 28;
7E66 : 42;
7E67 : 02;
7E68 : 04;
7E69 : 30;
7E6A : 04;
7E6B : 30;
7E6C : 04;
7E6D : 6c;
7E6E : 02;
7E6F : 24;
7E70 : 68;
7E71 : 02;
7E72 : 2c;
7E73 : 42;
7E74 : 02;
7E75 : 08;
7E76 : 06;
7E77 : 08;
7E78 : 06;
7E79 : 08;
7E7A : 6c;
7E7B : 02;
7E7C : 24;
7E7D : 68;
7E7E : 02;
7E7F : 2c;
7E80 : 42;
7E81 : 02;
7E82 : 08;
7E83 : 06;
7E84 : 08;
7E85 : 06;
7E86 : 08;
7E87 : 70;
7E88 : 02;
7E89 : 28;
7E8A : 6c;
7E8B : 02;
7E8C : 30;
7E8D : 42;
7E8E : 02;
7E8F : 0e;
7E90 : 0c;
7E91 : 0e;
7E92 : 0c;
7E93 : 0e;
7E94 : 70;
7E95 : 02;
7E96 : 28;
7E97 : 6c;
7E98 : 02;
7E99 : 30;
7E9A : 42;
7E9B : 02;
7E9C : 0e;
7E9D : 0c;
7E9E : 0e;
7E9F : 0c;
7EA0 : 0e;
7EA1 : 8d;
7EA2 : c5;
7EA3 : e9;
7EA4 : 8d;
7EA5 : c5;
7EA6 : e9;
7EA7 : 8f;
7EA8 : c9;
7EA9 : ed;
7EAA : 8f;
7EAB : c9;
7EAC : ed;
7EAD : 91;
7EAE : c9;
7EAF : c5;
7EB0 : 91;
7EB1 : c9;
7EB2 : c5;
7EB3 : 93;
7EB4 : cf;
7EB5 : c9;
7EB6 : b1;
7EB7 : ef;
7EB8 : ed;
7EB9 : 5a;
7EBA : 5c;
7EBB : 5e;
7EBC : 60;
7EBD : a2;
7EBE : 69;
7EBF : 67;
7EC0 : 6b;
7EC1 : a8;
7EC2 : 84;
7EC3 : 68;
7EC4 : 66;
7EC5 : 02;
7EC6 : 24;
7EC7 : 60;
7EC8 : 02;
7EC9 : 9a;
7ECA : 1a;
7ECB : 9d;
7ECC : df;
7ECD : e1;
7ECE : a3;
7ECF : e5;
7ED0 : e7;
7ED1 : a9;
7ED2 : eb;
7ED3 : ed;
7ED4 : f0;
7ED5 : 42;
7ED6 : 02;
7ED7 : 04;
7ED8 : 4a;
7ED9 : 02;
7EDA : cc;
7EDB : 02;
7EDC : 00;
7EDD : 72;
7EDE : 74;
7EDF : 76;
7EE0 : 78;
7EE1 : ba;
7EE2 : 5f;
7EE3 : 5d;
7EE4 : 61;
7EE5 : 9e;
7EE6 : a8;
7EE7 : 5e;
7EE8 : 5c;
7EE9 : 02;
7EEA : 1a;
7EEB : 78;
7EEC : 02;
7EED : b2;
7EEE : 38;
7EEF : b1;
7EF0 : db;
7EF1 : dd;
7EF2 : 9f;
7EF3 : e1;
7EF4 : e3;
7EF5 : a5;
7EF6 : e7;
7EF7 : e9;
7EF8 : ec;
7EF9 : 42;
7EFA : 02;
7EFB : 28;
7EFC : 6e;
7EFD : 02;
7EFE : f0;
7EFF : 02;
7F00 : 03;
7F01 : 57;
7F02 : 00;
7F03 : 00;
7F04 : 00;
7F05 : d4;
7F06 : 00;
7F07 : c8;
7F08 : 00;
7F09 : bd;
7F0A : 00;
7F0B : b2;
7F0C : 00;
7F0D : a8;
7F0E : 00;
7F0F : 9f;
7F10 : 00;
7F11 : 96;
7F12 : 00;
7F13 : 8d;
7F14 : 00;
7F15 : 7e;
7F16 : 00;
7F17 : 76;
7F18 : 00;
7F19 : 70;
7F1A : 01;
7F1B : ab;
7F1C : 01;
7F1D : 93;
7F1E : 01;
7F1F : 7c;
7F20 : 01;
7F21 : 67;
7F22 : 01;
7F23 : 52;
7F24 : 01;
7F25 : 3f;
7F26 : 01;
7F27 : 2d;
7F28 : 01;
7F29 : 1c;
7F2A : 01;
7F2B : 0c;
7F2C : 00;
7F2D : fd;
7F2E : 00;
7F2F : ee;
7F30 : 00;
7F31 : e1;
7F32 : 02;
7F33 : 3a;
7F34 : 02;
7F35 : 1a;
7F36 : 01;
7F37 : fc;
7F38 : 01;
7F39 : df;
7F3A : 01;
7F3B : c4;
7F3C : 00;
7F3D : 0e;
7F3E : 04;
7F3F : 75;
7F40 : 05;
7F41 : 0a;
7F42 : 14;
7F43 : 28;
7F44 : 50;
7F45 : 1e;
7F46 : 05;
7F47 : 0a;
7F48 : 14;
7F49 : 28;
7F4A : 50;
7F4B : 1e;
7F4C : 06;
7F4D : 07;
7F4E : 5a;
7F4F : 5c;
7F50 : 5e;
7F51 : 60;
7F52 : a2;
7F53 : 69;
7F54 : 67;
7F55 : 6b;
7F56 : a8;
7F57 : 84;
7F58 : 68;
7F59 : 66;
7F5A : 02;
7F5B : 24;
7F5C : 60;
7F5D : 02;
7F5E : 9a;
7F5F : 28;
7F60 : ab;
7F61 : ed;
7F62 : ef;
7F63 : b1;
7F64 : c5;
7F65 : c7;
7F66 : 89;
7F67 : cb;
7F68 : cd;
7F69 : d0;
7F6A : 42;
7F6B : 02;
7F6C : 04;
7F6D : 4a;
7F6E : 02;
7F6F : cc;
7F70 : 02;
7F71 : a3;
7F72 : e3;
7F73 : e3;
7F74 : 64;
7F75 : 02;
7F76 : a6;
7F77 : 28;
7F78 : 2a;
7F79 : 28;
7F7A : 2a;
7F7B : 28;
7F7C : a7;
7F7D : e9;
7F7E : c5;
7F7F : 4a;
7F80 : 02;
7F81 : 84;
7F82 : 2e;
7F83 : a9;
7F84 : e7;
7F85 : e5;
7F86 : a3;
7F87 : e3;
7F88 : e3;
7F89 : 64;
7F8A : 02;
7F8B : a6;
7F8C : 28;
7F8D : 2a;
7F8E : 28;
7F8F : 2a;
7F90 : 28;
7F91 : 52;
7F92 : 02;
7F93 : 0e;
7F94 : 4a;
7F95 : 02;
7F96 : c4;
7F97 : 02;
7F98 : 00;
7F99 : 9b;
7F9A : db;
7F9B : db;
7F9C : 5e;
7F9D : 02;
7F9E : 9a;
7F9F : 9e;
7FA0 : 02;
7FA1 : 03;
7FA2 : 9b;
7FA3 : db;
7FA4 : db;
7FA5 : 5e;
7FA6 : 02;
7FA7 : 9a;
7FA8 : 9e;
7FA9 : 02;
7FAA : 48;
7FAB : 02;
7FAC : 08;
7FAD : 44;
7FAE : 02;
7FAF : e8;
7FB0 : 02;
7FB1 : a9;
7FB2 : e9;
7FB3 : e9;
7FB4 : 6c;
7FB5 : 02;
7FB6 : aa;
7FB7 : b0;
7FB8 : 02;
7FB9 : a7;
7FBA : e9;
7FBB : c5;
7FBC : 4a;
7FBD : 02;
7FBE : 84;
7FBF : 2e;
7FC0 : a9;
7FC1 : e7;
7FC2 : e5;
7FC3 : a9;
7FC4 : e9;
7FC5 : e9;
7FC6 : 6c;
7FC7 : 02;
7FC8 : aa;
7FC9 : b0;
7FCA : 02;
7FCB : 58;
7FCC : 02;
7FCD : 18;
7FCE : 54;
7FCF : 02;
7FD0 : cc;
7FD1 : 02;
7FD2 : 28;
7FD3 : 26;
7FD4 : 28;
7FD5 : 26;
7FD6 : e8;
7FD7 : 00;
7FD8 : 00;
7FD9 : 50;
7FDA : 51;
7FDB : 51;
7FDC : 51;
7FDD : 51;
7FDE : 51;
7FDF : 51;
7FE0 : 51;
7FE1 : 51;
7FE2 : 52;
7FE3 : 52;
7FE4 : 52;
7FE5 : 52;
7FE6 : 52;
7FE7 : 52;
7FE8 : 53;
7FE9 : 53;
7FEA : 53;
7FEB : 53;
7FEC : 53;
7FED : 54;
7FEE : 54;
7FEF : 54;
7FF0 : 54;
7FF1 : 55;
7FF2 : 55;
7FF3 : 55;
7FF4 : 56;
7FF5 : 56;
7FF6 : 56;
7FF7 : 56;
7FF8 : 57;
7FF9 : ff;
7FFA : 76;
7FFB : c0;
7FFC : 14;
7FFD : c0;
7FFE : f0;
7FFF : ff;
END;