DEPTH=32768;
WIDTH=8;
ADDRESS_RADIX=HEX;
DATA_RADIX=HEX;
CONTENT
BEGIN
   0 : 66;
   1 : 84;
   2 : 23;
   3 : 87;
   4 : 86;
   5 : 87;
   6 : a7;
   7 : 8a;
   8 : 14;
   9 : 89;
   A : 7a;
   B : 89;
   C : c1;
   D : 8c;
   E : 1c;
   F : 80;
  10 : 24;
  11 : 80;
  12 : 24;
  13 : 80;
  14 : 24;
  15 : 80;
  16 : 24;
  17 : 80;
  18 : 44;
  19 : 80;
  1A : 4e;
  1B : 80;
  1C : f0;
  1D : 84;
  1E : ec;
  1F : 83;
  20 : 27;
  21 : 84;
  22 : 18;
  23 : 87;
  24 : f0;
  25 : 84;
  26 : 22;
  27 : 85;
  28 : 52;
  29 : 85;
  2A : 53;
  2B : 85;
  2C : 52;
  2D : 85;
  2E : a3;
  2F : 86;
  30 : 52;
  31 : 85;
  32 : 63;
  33 : 85;
  34 : 52;
  35 : 85;
  36 : eb;
  37 : a8;
  38 : 1c;
  39 : 86;
  3A : 99;
  3B : 86;
  3C : a8;
  3D : 86;
  3E : 52;
  3F : 85;
  40 : 22;
  41 : 85;
  42 : 18;
  43 : 87;
  44 : f0;
  45 : 84;
  46 : 57;
  47 : 89;
  48 : a3;
  49 : 86;
  4A : 5c;
  4B : 89;
  4C : 18;
  4D : 87;
  4E : 94;
  4F : 8d;
  50 : cf;
  51 : 8d;
  52 : dc;
  53 : 8d;
  54 : 18;
  55 : 87;
  56 : 01;
  57 : 01;
  58 : 01;
  59 : 01;
  5A : 01;
  5B : 6c;
  5C : 03;
  5D : c1;
  5E : 39;
  5F : a2;
  60 : 0b;
  61 : 40;
  62 : 90;
  63 : c4;
  64 : db;
  65 : f1;
  66 : fc;
  67 : f4;
  68 : 28;
  69 : 3c;
  6A : 46;
  6B : 88;
  6C : 80;
  6D : 01;
  6E : a3;
  6F : b8;
  70 : b0;
  71 : 7e;
  72 : 01;
  73 : 5c;
  74 : 01;
  75 : 64;
  76 : 78;
  77 : 4f;
  78 : 93;
  79 : 75;
  7A : 01;
  7B : 32;
  7C : 53;
  7D : 74;
  7E : 90;
  7F : ac;
  80 : d1;
  81 : f6;
  82 : 17;
  83 : 38;
  84 : 58;
  85 : 78;
  86 : 94;
  87 : b0;
  88 : d2;
  89 : f4;
  8A : 0f;
  8B : 2a;
  8C : 45;
  8D : 60;
  8E : 79;
  8F : 92;
  90 : b7;
  91 : dc;
  92 : fd;
  93 : 1e;
  94 : 43;
  95 : 68;
  96 : 89;
  97 : aa;
  98 : cf;
  99 : f4;
  9A : 16;
  9B : 38;
  9C : 56;
  9D : 74;
  9E : 94;
  9F : b4;
  A0 : d3;
  A1 : f2;
  A2 : 19;
  A3 : 40;
  A4 : 5f;
  A5 : 03;
  A6 : 03;
  A7 : 03;
  A8 : 03;
  A9 : 03;
  AA : db;
  AB : 97;
  AC : 97;
  AD : 98;
  AE : 98;
  AF : 99;
  B0 : 99;
  B1 : db;
  B2 : 9a;
  B3 : 9a;
  B4 : 9a;
  B5 : 9a;
  B6 : 99;
  B7 : 9a;
  B8 : 9a;
  B9 : 9a;
  BA : db;
  BB : db;
  BC : 03;
  BD : 95;
  BE : db;
  BF : db;
  C0 : 95;
  C1 : 03;
  C2 : db;
  C3 : 03;
  C4 : db;
  C5 : db;
  C6 : 9a;
  C7 : 9a;
  C8 : 99;
  C9 : 03;
  CA : 90;
  CB : 90;
  CC : 90;
  CD : 90;
  CE : 90;
  CF : 90;
  D0 : 90;
  D1 : 91;
  D2 : 91;
  D3 : 91;
  D4 : 91;
  D5 : 91;
  D6 : 91;
  D7 : 91;
  D8 : 91;
  D9 : 92;
  DA : 92;
  DB : 92;
  DC : 92;
  DD : 92;
  DE : 92;
  DF : 92;
  E0 : 92;
  E1 : 92;
  E2 : 93;
  E3 : 93;
  E4 : 93;
  E5 : 93;
  E6 : 93;
  E7 : 93;
  E8 : 93;
  E9 : 94;
  EA : 94;
  EB : 94;
  EC : 94;
  ED : 94;
  EE : 94;
  EF : 94;
  F0 : 94;
  F1 : 95;
  F2 : 95;
  F3 : 95;
  F4 : 77;
  F5 : 87;
  F6 : 97;
  F7 : a7;
  F8 : 3e;
  F9 : a9;
  FA : 3f;
  FB : ab;
  FC : 3e;
  FD : a9;
  FE : 2a;
  FF : ac;
 100 : 3e;
 101 : a9;
 102 : 10;
 103 : e0;
 104 : d0;
 105 : 70;
 106 : 01;
 107 : 01;
 108 : 02;
 109 : 03;
 10A : 70;
 10B : 80;
 10C : a4;
 10D : 70;
 10E : 40;
 10F : ff;
 110 : 20;
 111 : 02;
 112 : 47;
 113 : 03;
 114 : 06;
 115 : 00;
 116 : 06;
 117 : 00;
 118 : 06;
 119 : e0;
 11A : 20;
 11B : 60;
 11C : 7d;
 11D : c0;
 11E : 40;
 11F : 02;
 120 : 01;
 121 : 00;
 122 : 01;
 123 : 01;
 124 : f1;
 125 : 21;
 126 : 01;
 127 : 01;
 128 : e8;
 129 : 21;
 12A : 0c;
 12B : 0a;
 12C : 09;
 12D : 08;
 12E : 0b;
 12F : 09;
 130 : 08;
 131 : 07;
 132 : 09;
 133 : 07;
 134 : 07;
 135 : 06;
 136 : 09;
 137 : 07;
 138 : 07;
 139 : 06;
 13A : 08;
 13B : 06;
 13C : 06;
 13D : 05;
 13E : e8;
 13F : 8a;
 140 : 43;
 141 : 8b;
 142 : 4d;
 143 : 8b;
 144 : 88;
 145 : 8b;
 146 : f5;
 147 : 8b;
 148 : 3c;
 149 : 8c;
 14A : 4d;
 14B : 8b;
 14C : 6b;
 14D : 8c;
 14E : f5;
 14F : 8b;
 150 : 3c;
 151 : 8c;
 152 : 77;
 153 : ff;
 154 : 01;
 155 : f8;
 156 : 20;
 157 : af;
 158 : 09;
 159 : fc;
 15A : 14;
 15B : fc;
 15C : 14;
 15D : fc;
 15E : 14;
 15F : fc;
 160 : 14;
 161 : fc;
 162 : 00;
 163 : 22;
 164 : 22;
 165 : 26;
 166 : 14;
 167 : ff;
 168 : 00;
 169 : 14;
 16A : 19;
 16B : 15;
 16C : 0a;
 16D : 22;
 16E : 0e;
 16F : 1b;
 170 : ff;
 171 : 10;
 172 : 0a;
 173 : 16;
 174 : 0e;
 175 : ff;
 176 : 18;
 177 : 1f;
 178 : 0e;
 179 : 1b;
 17A : ff;
 17B : 22;
 17C : 06;
 17D : 54;
 17E : ff;
 17F : 22;
 180 : 46;
 181 : 54;
 182 : ff;
 183 : 00;
 184 : 00;
 185 : 02;
 186 : 04;
 187 : 44;
 188 : 04;
 189 : 00;
 18A : 02;
 18B : 42;
 18C : 02;
 18D : 42;
 18E : 02;
 18F : 00;
 190 : 08;
 191 : 48;
 192 : 40;
 193 : 00;
 194 : 02;
 195 : 00;
 196 : 04;
 197 : 44;
 198 : 00;
 199 : 02;
 19A : 00;
 19B : 04;
 19C : 84;
 19D : 82;
 19E : 02;
 19F : 00;
 1A0 : 01;
 1A1 : 00;
 1A2 : 04;
 1A3 : 00;
 1A4 : 02;
 1A5 : 00;
 1A6 : 01;
 1A7 : 00;
 1A8 : 02;
 1A9 : 00;
 1AA : 02;
 1AB : 00;
 1AC : 04;
 1AD : 44;
 1AE : 04;
 1AF : 02;
 1B0 : 00;
 1B1 : 08;
 1B2 : 00;
 1B3 : 40;
 1B4 : 00;
 1B5 : 02;
 1B6 : 00;
 1B7 : 01;
 1B8 : 00;
 1B9 : 02;
 1BA : 00;
 1BB : 04;
 1BC : 44;
 1BD : 04;
 1BE : 00;
 1BF : 02;
 1C0 : 00;
 1C1 : 08;
 1C2 : 00;
 1C3 : 02;
 1C4 : 00;
 1C5 : 04;
 1C6 : 44;
 1C7 : 04;
 1C8 : 00;
 1C9 : 02;
 1CA : 42;
 1CB : 40;
 1CC : 00;
 1CD : 01;
 1CE : 41;
 1CF : 40;
 1D0 : 00;
 1D1 : 04;
 1D2 : 44;
 1D3 : 04;
 1D4 : 44;
 1D5 : 04;
 1D6 : 00;
 1D7 : 02;
 1D8 : 00;
 1D9 : 01;
 1DA : 00;
 1DB : 02;
 1DC : 00;
 1DD : 04;
 1DE : 00;
 1DF : 01;
 1E0 : 00;
 1E1 : 02;
 1E2 : 00;
 1E3 : 04;
 1E4 : 01;
 1E5 : 04;
 1E6 : 00;
 1E7 : 02;
 1E8 : 00;
 1E9 : 04;
 1EA : 01;
 1EB : 00;
 1EC : 02;
 1ED : 00;
 1EE : 00;
 1EF : 23;
 1F0 : 0d;
 1F1 : 0b;
 1F2 : 03;
 1F3 : 01;
 1F4 : 1e;
 1F5 : 0c;
 1F6 : 1c;
 1F7 : 0a;
 1F8 : 51;
 1F9 : 05;
 1FA : 0d;
 1FB : 07;
 1FC : 05;
 1FD : 03;
 1FE : 02;
 1FF : 02;
 200 : 0a;
 201 : 0a;
 202 : 02;
 203 : 1f;
 204 : 03;
 205 : 11;
 206 : 06;
 207 : 04;
 208 : 90;
 209 : 0b;
 20A : 01;
 20B : 02;
 20C : 03;
 20D : 01;
 20E : 05;
 20F : 02;
 210 : 04;
 211 : 03;
 212 : 01;
 213 : 05;
 214 : 0a;
 215 : 02;
 216 : 0a;
 217 : 0a;
 218 : 01;
 219 : 5b;
 21A : 03;
 21B : 10;
 21C : 01;
 21D : 0b;
 21E : 08;
 21F : 03;
 220 : 04;
 221 : 04;
 222 : 06;
 223 : 05;
 224 : 01;
 225 : 07;
 226 : 0a;
 227 : 13;
 228 : 01;
 229 : 02;
 22A : 04;
 22B : 03;
 22C : 17;
 22D : 19;
 22E : 01;
 22F : 09;
 230 : 08;
 231 : 0d;
 232 : 1a;
 233 : 05;
 234 : 03;
 235 : 06;
 236 : 0d;
 237 : 02;
 238 : 05;
 239 : 04;
 23A : 1d;
 23B : 02;
 23C : 09;
 23D : 05;
 23E : 06;
 23F : 08;
 240 : 07;
 241 : 1e;
 242 : 04;
 243 : 2b;
 244 : 2a;
 245 : 05;
 246 : 70;
 247 : 01;
 248 : 01;
 249 : 09;
 24A : 03;
 24B : 05;
 24C : 01;
 24D : 02;
 24E : 07;
 24F : 01;
 250 : 01;
 251 : 05;
 252 : 01;
 253 : 02;
 254 : 03;
 255 : 03;
 256 : 14;
 257 : 00;
 258 : 78;
 259 : d8;
 25A : a9;
 25B : 00;
 25C : 8d;
 25D : 00;
 25E : 20;
 25F : a2;
 260 : ff;
 261 : 9a;
 262 : ad;
 263 : 02;
 264 : 20;
 265 : 0a;
 266 : 90;
 267 : fa;
 268 : ad;
 269 : 02;
 26A : 20;
 26B : 0a;
 26C : 90;
 26D : fa;
 26E : a9;
 26F : 04;
 270 : 85;
 271 : 01;
 272 : a9;
 273 : 00;
 274 : 85;
 275 : 00;
 276 : a8;
 277 : 91;
 278 : 00;
 279 : 88;
 27A : d0;
 27B : fb;
 27C : c6;
 27D : 01;
 27E : 10;
 27F : f7;
 280 : a9;
 281 : 06;
 282 : 85;
 283 : 01;
 284 : a9;
 285 : 00;
 286 : a8;
 287 : 91;
 288 : 00;
 289 : 88;
 28A : d0;
 28B : fb;
 28C : e6;
 28D : 01;
 28E : a5;
 28F : 01;
 290 : c9;
 291 : 08;
 292 : 90;
 293 : f3;
 294 : a9;
 295 : 05;
 296 : 85;
 297 : 01;
 298 : ad;
 299 : 1e;
 29A : 05;
 29B : c9;
 29C : a5;
 29D : d0;
 29E : 09;
 29F : ad;
 2A0 : 1f;
 2A1 : 05;
 2A2 : c9;
 2A3 : 5a;
 2A4 : d0;
 2A5 : 02;
 2A6 : a0;
 2A7 : 0f;
 2A8 : a9;
 2A9 : 00;
 2AA : 91;
 2AB : 00;
 2AC : 88;
 2AD : d0;
 2AE : fb;
 2AF : 8d;
 2B0 : 37;
 2B1 : 05;
 2B2 : a9;
 2B3 : a5;
 2B4 : 8d;
 2B5 : 1e;
 2B6 : 05;
 2B7 : a9;
 2B8 : 5a;
 2B9 : 8d;
 2BA : 1f;
 2BB : 05;
 2BC : a9;
 2BD : 00;
 2BE : 8d;
 2BF : 11;
 2C0 : 40;
 2C1 : a9;
 2C2 : 06;
 2C3 : 8d;
 2C4 : 01;
 2C5 : 20;
 2C6 : a9;
 2C7 : 0f;
 2C8 : 8d;
 2C9 : 15;
 2CA : 40;
 2CB : 20;
 2CC : e3;
 2CD : 83;
 2CE : a9;
 2CF : 90;
 2D0 : 20;
 2D1 : 1c;
 2D2 : 8e;
 2D3 : 4c;
 2D4 : d3;
 2D5 : 82;
 2D6 : a5;
 2D7 : 10;
 2D8 : 29;
 2D9 : 7f;
 2DA : 8d;
 2DB : 00;
 2DC : 20;
 2DD : 85;
 2DE : 10;
 2DF : a9;
 2E0 : 00;
 2E1 : 8d;
 2E2 : 01;
 2E3 : 20;
 2E4 : a9;
 2E5 : 00;
 2E6 : 8d;
 2E7 : 03;
 2E8 : 20;
 2E9 : a9;
 2EA : 02;
 2EB : 8d;
 2EC : 14;
 2ED : 40;
 2EE : a6;
 2EF : 52;
 2F0 : bd;
 2F1 : 56;
 2F2 : 80;
 2F3 : 85;
 2F4 : 00;
 2F5 : bd;
 2F6 : a5;
 2F7 : 80;
 2F8 : 85;
 2F9 : 01;
 2FA : 20;
 2FB : 3e;
 2FC : db;
 2FD : 20;
 2FE : 0d;
 2FF : 8e;
 300 : a5;
 301 : 50;
 302 : f0;
 303 : 09;
 304 : a5;
 305 : 11;
 306 : 09;
 307 : 1a;
 308 : 8d;
 309 : 01;
 30A : 20;
 30B : 85;
 30C : 11;
 30D : a9;
 30E : 00;
 30F : 8d;
 310 : 00;
 311 : 03;
 312 : 8d;
 313 : 01;
 314 : 03;
 315 : 85;
 316 : 52;
 317 : 85;
 318 : 66;
 319 : ad;
 31A : 66;
 31B : 03;
 31C : 0d;
 31D : 67;
 31E : 03;
 31F : d0;
 320 : 17;
 321 : a2;
 322 : 13;
 323 : c6;
 324 : 20;
 325 : 10;
 326 : 06;
 327 : a9;
 328 : 0a;
 329 : 85;
 32A : 20;
 32B : a2;
 32C : 27;
 32D : b5;
 32E : 21;
 32F : f0;
 330 : 02;
 331 : d6;
 332 : 21;
 333 : ca;
 334 : 10;
 335 : f7;
 336 : e6;
 337 : 49;
 338 : 20;
 339 : c5;
 33A : 8f;
 33B : a5;
 33C : 18;
 33D : 29;
 33E : 02;
 33F : 85;
 340 : 00;
 341 : a5;
 342 : 19;
 343 : 29;
 344 : 02;
 345 : 45;
 346 : 00;
 347 : 18;
 348 : f0;
 349 : 01;
 34A : 38;
 34B : 66;
 34C : 18;
 34D : 66;
 34E : 19;
 34F : 66;
 350 : 1a;
 351 : 66;
 352 : 1b;
 353 : 66;
 354 : 1c;
 355 : 66;
 356 : 1d;
 357 : 66;
 358 : 1e;
 359 : 66;
 35A : 1f;
 35B : 20;
 35C : 92;
 35D : 83;
 35E : ad;
 35F : 37;
 360 : 05;
 361 : f0;
 362 : 21;
 363 : a9;
 364 : 00;
 365 : a2;
 366 : f0;
 367 : 95;
 368 : 00;
 369 : e8;
 36A : d0;
 36B : fb;
 36C : a5;
 36D : 14;
 36E : 29;
 36F : 30;
 370 : f0;
 371 : 0f;
 372 : ad;
 373 : 69;
 374 : 03;
 375 : d0;
 376 : 0a;
 377 : 20;
 378 : 4f;
 379 : 89;
 37A : a9;
 37B : 01;
 37C : 85;
 37D : 35;
 37E : 0a;
 37F : 85;
 380 : 20;
 381 : 8d;
 382 : 69;
 383 : 03;
 384 : 20;
 385 : 31;
 386 : f8;
 387 : ad;
 388 : 02;
 389 : 20;
 38A : a5;
 38B : 10;
 38C : 09;
 38D : 80;
 38E : 20;
 38F : 1c;
 390 : 8e;
 391 : 40;
 392 : a5;
 393 : 50;
 394 : f0;
 395 : 1b;
 396 : a5;
 397 : 51;
 398 : f0;
 399 : 07;
 39A : c9;
 39B : 01;
 39C : f0;
 39D : 03;
 39E : 20;
 39F : ce;
 3A0 : 88;
 3A1 : a5;
 3A2 : 51;
 3A3 : 0a;
 3A4 : a8;
 3A5 : b9;
 3A6 : 00;
 3A7 : 80;
 3A8 : 85;
 3A9 : 00;
 3AA : c8;
 3AB : b9;
 3AC : 00;
 3AD : 80;
 3AE : 4c;
 3AF : d4;
 3B0 : 83;
 3B1 : 20;
 3B2 : a0;
 3B3 : 8f;
 3B4 : a5;
 3B5 : 35;
 3B6 : d0;
 3B7 : 21;
 3B8 : a5;
 3B9 : 51;
 3BA : 0a;
 3BB : aa;
 3BC : bd;
 3BD : 0e;
 3BE : 80;
 3BF : 85;
 3C0 : 02;
 3C1 : e8;
 3C2 : bd;
 3C3 : 0e;
 3C4 : 80;
 3C5 : 85;
 3C6 : 03;
 3C7 : a5;
 3C8 : 4f;
 3C9 : e6;
 3CA : 4f;
 3CB : 0a;
 3CC : a8;
 3CD : b1;
 3CE : 02;
 3CF : 85;
 3D0 : 00;
 3D1 : c8;
 3D2 : b1;
 3D3 : 02;
 3D4 : 85;
 3D5 : 01;
 3D6 : 6c;
 3D7 : 00;
 3D8 : 00;
 3D9 : a5;
 3DA : 6f;
 3DB : d0;
 3DC : 3d;
 3DD : 85;
 3DE : 63;
 3DF : a9;
 3E0 : 01;
 3E1 : 85;
 3E2 : 6f;
 3E3 : 20;
 3E4 : 54;
 3E5 : 8f;
 3E6 : 20;
 3E7 : a6;
 3E8 : 8f;
 3E9 : 4c;
 3EA : b1;
 3EB : 8f;
 3EC : a9;
 3ED : 0c;
 3EE : 85;
 3EF : 52;
 3F0 : a9;
 3F1 : 01;
 3F2 : 85;
 3F3 : 80;
 3F4 : 85;
 3F5 : 86;
 3F6 : 85;
 3F7 : 9f;
 3F8 : 85;
 3F9 : a5;
 3FA : 85;
 3FB : c0;
 3FC : a9;
 3FD : 0e;
 3FE : 85;
 3FF : 87;
 400 : 85;
 401 : 8d;
 402 : a9;
 403 : 70;
 404 : 85;
 405 : b0;
 406 : 85;
 407 : b6;
 408 : a9;
 409 : 28;
 40A : 85;
 40B : 8e;
 40C : a9;
 40D : d8;
 40E : 85;
 40F : 94;
 410 : a9;
 411 : 10;
 412 : 85;
 413 : 4b;
 414 : 20;
 415 : ba;
 416 : b2;
 417 : 20;
 418 : 03;
 419 : 8a;
 41A : 60;
 41B : 00;
 41C : 0a;
 41D : 40;
 41E : 38;
 41F : be;
 420 : f4;
 421 : 02;
 422 : 40;
 423 : ce;
 424 : f4;
 425 : 02;
 426 : 47;
 427 : a9;
 428 : 18;
 429 : 85;
 42A : 52;
 42B : 8d;
 42C : 3b;
 42D : 05;
 42E : a9;
 42F : 00;
 430 : 85;
 431 : 6d;
 432 : 85;
 433 : 56;
 434 : 85;
 435 : 57;
 436 : 85;
 437 : 58;
 438 : 85;
 439 : 59;
 43A : 8d;
 43B : 2d;
 43C : 05;
 43D : 8d;
 43E : 2e;
 43F : 05;
 440 : 85;
 441 : 55;
 442 : 8d;
 443 : 3c;
 444 : 05;
 445 : 85;
 446 : 5c;
 447 : 85;
 448 : 5d;
 449 : a9;
 44A : 0f;
 44B : 8d;
 44C : 15;
 44D : 40;
 44E : a2;
 44F : 0b;
 450 : bd;
 451 : 1b;
 452 : 84;
 453 : 9d;
 454 : 00;
 455 : 02;
 456 : ca;
 457 : 10;
 458 : f7;
 459 : a6;
 45A : 54;
 45B : bd;
 45C : f4;
 45D : 80;
 45E : 8d;
 45F : 00;
 460 : 02;
 461 : a9;
 462 : 38;
 463 : 85;
 464 : 36;
 465 : 60;
 466 : a5;
 467 : 36;
 468 : d0;
 469 : 07;
 46A : a9;
 46B : 0f;
 46C : 8d;
 46D : 37;
 46E : 05;
 46F : d0;
 470 : 39;
 471 : a5;
 472 : 14;
 473 : 29;
 474 : 30;
 475 : d0;
 476 : 04;
 477 : 8d;
 478 : 3b;
 479 : 05;
 47A : 60;
 47B : ae;
 47C : 3b;
 47D : 05;
 47E : d0;
 47F : fa;
 480 : 29;
 481 : 20;
 482 : f0;
 483 : 0e;
 484 : 8d;
 485 : 3b;
 486 : 05;
 487 : e6;
 488 : 54;
 489 : a5;
 48A : 54;
 48B : 29;
 48C : 03;
 48D : 85;
 48E : 54;
 48F : 4c;
 490 : 4e;
 491 : 84;
 492 : a5;
 493 : 54;
 494 : 29;
 495 : 01;
 496 : 85;
 497 : 53;
 498 : a2;
 499 : 06;
 49A : a9;
 49B : 00;
 49C : 9d;
 49D : 00;
 49E : 05;
 49F : 9d;
 4A0 : 07;
 4A1 : 05;
 4A2 : ca;
 4A3 : 10;
 4A4 : f7;
 4A5 : a9;
 4A6 : 01;
 4A7 : 8d;
 4A8 : 38;
 4A9 : 05;
 4AA : a2;
 4AB : 03;
 4AC : 86;
 4AD : 5c;
 4AE : a5;
 4AF : 54;
 4B0 : 29;
 4B1 : 02;
 4B2 : f0;
 4B3 : 02;
 4B4 : 86;
 4B5 : 5d;
 4B6 : a9;
 4B7 : 02;
 4B8 : 85;
 4B9 : 35;
 4BA : 8d;
 4BB : 69;
 4BC : 03;
 4BD : e6;
 4BE : 51;
 4BF : ad;
 4C0 : 37;
 4C1 : 05;
 4C2 : 49;
 4C3 : 0f;
 4C4 : 8d;
 4C5 : 15;
 4C6 : 40;
 4C7 : 20;
 4C8 : bf;
 4C9 : 88;
 4CA : ad;
 4CB : 37;
 4CC : 05;
 4CD : f0;
 4CE : ab;
 4CF : a9;
 4D0 : 00;
 4D1 : 8d;
 4D2 : cd;
 4D3 : 03;
 4D4 : 85;
 4D5 : 20;
 4D6 : 85;
 4D7 : 49;
 4D8 : 85;
 4D9 : 4a;
 4DA : a8;
 4DB : b9;
 4DC : ee;
 4DD : 81;
 4DE : 8d;
 4DF : 39;
 4E0 : 05;
 4E1 : a2;
 4E2 : 07;
 4E3 : ad;
 4E4 : 37;
 4E5 : 05;
 4E6 : d0;
 4E7 : 02;
 4E8 : a9;
 4E9 : 06;
 4EA : 95;
 4EB : 18;
 4EC : ca;
 4ED : 10;
 4EE : fb;
 4EF : 60;
 4F0 : a0;
 4F1 : 60;
 4F2 : a9;
 4F3 : 00;
 4F4 : 99;
 4F5 : 00;
 4F6 : 00;
 4F7 : c8;
 4F8 : d0;
 4F9 : fa;
 4FA : a2;
 4FB : 03;
 4FC : 86;
 4FD : 01;
 4FE : 85;
 4FF : 00;
 500 : 91;
 501 : 00;
 502 : c8;
 503 : d0;
 504 : fb;
 505 : e6;
 506 : 01;
 507 : a6;
 508 : 01;
 509 : e0;
 50A : 05;
 50B : d0;
 50C : 02;
 50D : e6;
 50E : 01;
 50F : e0;
 510 : 08;
 511 : 90;
 512 : ed;
 513 : a2;
 514 : 06;
 515 : 8a;
 516 : 9d;
 517 : c2;
 518 : 03;
 519 : ca;
 51A : 10;
 51B : f9;
 51C : a9;
 51D : f8;
 51E : 8d;
 51F : 2f;
 520 : 05;
 521 : 60;
 522 : a6;
 523 : 55;
 524 : b5;
 525 : 56;
 526 : 85;
 527 : 5e;
 528 : c9;
 529 : 03;
 52A : 90;
 52B : 02;
 52C : a9;
 52D : 03;
 52E : 85;
 52F : be;
 530 : b5;
 531 : 58;
 532 : 85;
 533 : 5f;
 534 : a0;
 535 : 24;
 536 : b9;
 537 : dc;
 538 : db;
 539 : 99;
 53A : 01;
 53B : 03;
 53C : 88;
 53D : 10;
 53E : f7;
 53F : a5;
 540 : 5f;
 541 : 0a;
 542 : 0a;
 543 : a8;
 544 : a2;
 545 : 00;
 546 : b9;
 547 : 48;
 548 : db;
 549 : 9d;
 54A : 20;
 54B : 03;
 54C : c8;
 54D : e8;
 54E : e0;
 54F : 04;
 550 : 90;
 551 : f4;
 552 : 60;
 553 : a9;
 554 : 06;
 555 : 85;
 556 : 52;
 557 : a5;
 558 : 53;
 559 : ae;
 55A : 37;
 55B : 05;
 55C : f0;
 55D : 02;
 55E : a9;
 55F : 01;
 560 : 85;
 561 : 6b;
 562 : 60;
 563 : a2;
 564 : 08;
 565 : a9;
 566 : ff;
 567 : 9d;
 568 : c0;
 569 : 04;
 56A : ca;
 56B : 10;
 56C : fa;
 56D : a2;
 56E : 07;
 56F : a5;
 570 : 5f;
 571 : f0;
 572 : 05;
 573 : e8;
 574 : 4a;
 575 : 90;
 576 : 01;
 577 : e8;
 578 : 86;
 579 : 52;
 57A : a2;
 57B : 03;
 57C : bd;
 57D : 0e;
 57E : 81;
 57F : 9d;
 580 : 00;
 581 : 02;
 582 : ca;
 583 : 10;
 584 : f7;
 585 : a9;
 586 : 87;
 587 : 85;
 588 : b5;
 589 : 85;
 58A : b6;
 58B : a6;
 58C : 5f;
 58D : 8a;
 58E : 18;
 58F : 69;
 590 : 03;
 591 : 85;
 592 : 8c;
 593 : a9;
 594 : 09;
 595 : 85;
 596 : 8d;
 597 : 8d;
 598 : 8a;
 599 : 03;
 59A : a9;
 59B : c0;
 59C : 8d;
 59D : 8b;
 59E : 03;
 59F : bd;
 5A0 : 14;
 5A1 : 81;
 5A2 : 85;
 5A3 : 65;
 5A4 : 8a;
 5A5 : 0a;
 5A6 : a8;
 5A7 : 20;
 5A8 : 10;
 5A9 : 86;
 5AA : 8a;
 5AB : 29;
 5AC : 01;
 5AD : 8d;
 5AE : 72;
 5AF : 03;
 5B0 : 8d;
 5B1 : 7b;
 5B2 : 03;
 5B3 : 85;
 5B4 : 69;
 5B5 : a8;
 5B6 : 49;
 5B7 : 01;
 5B8 : 85;
 5B9 : c5;
 5BA : 85;
 5BB : 62;
 5BC : a9;
 5BD : 01;
 5BE : 85;
 5BF : 85;
 5C0 : 0a;
 5C1 : 85;
 5C2 : 7e;
 5C3 : 8d;
 5C4 : 90;
 5C5 : 03;
 5C6 : b9;
 5C7 : 17;
 5C8 : 81;
 5C9 : 85;
 5CA : e4;
 5CB : b9;
 5CC : 19;
 5CD : 81;
 5CE : 85;
 5CF : d3;
 5D0 : b9;
 5D1 : 1d;
 5D2 : 81;
 5D3 : 85;
 5D4 : 64;
 5D5 : b9;
 5D6 : 12;
 5D7 : 81;
 5D8 : 85;
 5D9 : 74;
 5DA : b9;
 5DB : 14;
 5DC : 81;
 5DD : 85;
 5DE : e5;
 5DF : b9;
 5E0 : 1d;
 5E1 : 81;
 5E2 : 85;
 5E3 : d4;
 5E4 : b9;
 5E5 : 1b;
 5E6 : 81;
 5E7 : 8d;
 5E8 : 84;
 5E9 : 03;
 5EA : a9;
 5EB : 30;
 5EC : 8d;
 5ED : a5;
 5EE : 04;
 5EF : 8d;
 5F0 : a6;
 5F1 : 04;
 5F2 : a5;
 5F3 : 5f;
 5F4 : c9;
 5F5 : 03;
 5F6 : d0;
 5F7 : 15;
 5F8 : a2;
 5F9 : 03;
 5FA : bd;
 5FB : 02;
 5FC : 81;
 5FD : 95;
 5FE : d5;
 5FF : bd;
 600 : 06;
 601 : 81;
 602 : 95;
 603 : e6;
 604 : bd;
 605 : 0a;
 606 : 81;
 607 : 9d;
 608 : 50;
 609 : 04;
 60A : ca;
 60B : 10;
 60C : ed;
 60D : 60;
 60E : a0;
 60F : 00;
 610 : b9;
 611 : f8;
 612 : 80;
 613 : 85;
 614 : 5a;
 615 : c8;
 616 : b9;
 617 : f8;
 618 : 80;
 619 : 85;
 61A : 5b;
 61B : 60;
 61C : 20;
 61D : 6b;
 61E : cc;
 61F : ac;
 620 : 00;
 621 : 03;
 622 : a9;
 623 : 20;
 624 : 99;
 625 : 01;
 626 : 03;
 627 : 99;
 628 : 05;
 629 : 03;
 62A : a9;
 62B : f7;
 62C : 99;
 62D : 02;
 62E : 03;
 62F : a9;
 630 : 01;
 631 : 99;
 632 : 03;
 633 : 03;
 634 : 99;
 635 : 07;
 636 : 03;
 637 : a5;
 638 : 5e;
 639 : 99;
 63A : 04;
 63B : 03;
 63C : a9;
 63D : fc;
 63E : 99;
 63F : 06;
 640 : 03;
 641 : a9;
 642 : 0a;
 643 : a6;
 644 : 53;
 645 : f0;
 646 : 02;
 647 : a9;
 648 : fa;
 649 : 99;
 64A : 08;
 64B : 03;
 64C : a9;
 64D : 00;
 64E : 99;
 64F : 09;
 650 : 03;
 651 : 98;
 652 : 18;
 653 : 69;
 654 : 08;
 655 : 8d;
 656 : 00;
 657 : 03;
 658 : 20;
 659 : 91;
 65A : cc;
 65B : a9;
 65C : 20;
 65D : 8d;
 65E : 2a;
 65F : 05;
 660 : a9;
 661 : 6f;
 662 : 8d;
 663 : 2b;
 664 : 05;
 665 : 20;
 666 : 31;
 667 : cc;
 668 : a5;
 669 : 55;
 66A : d0;
 66B : 12;
 66C : 20;
 66D : 81;
 66E : 86;
 66F : a2;
 670 : 06;
 671 : bd;
 672 : 00;
 673 : 05;
 674 : 9d;
 675 : 30;
 676 : 05;
 677 : ca;
 678 : 10;
 679 : f7;
 67A : a9;
 67B : 64;
 67C : d0;
 67D : 10;
 67E : 20;
 67F : 6f;
 680 : 86;
 681 : a2;
 682 : 06;
 683 : bd;
 684 : 07;
 685 : 05;
 686 : 9d;
 687 : 30;
 688 : 05;
 689 : ca;
 68A : 10;
 68B : f7;
 68C : a9;
 68D : 78;
 68E : 8d;
 68F : 29;
 690 : 05;
 691 : a9;
 692 : 20;
 693 : 8d;
 694 : 28;
 695 : 05;
 696 : 4c;
 697 : cf;
 698 : cb;
 699 : a9;
 69A : 0e;
 69B : 85;
 69C : 71;
 69D : ae;
 69E : 37;
 69F : 05;
 6A0 : f0;
 6A1 : 03;
 6A2 : 60;
 6A3 : a9;
 6A4 : 23;
 6A5 : 85;
 6A6 : 52;
 6A7 : 60;
 6A8 : a0;
 6A9 : 0d;
 6AA : b9;
 6AB : 56;
 6AC : 81;
 6AD : 99;
 6AE : 01;
 6AF : 03;
 6B0 : 88;
 6B1 : 10;
 6B2 : f7;
 6B3 : a4;
 6B4 : 5f;
 6B5 : a2;
 6B6 : 00;
 6B7 : 8e;
 6B8 : 3b;
 6B9 : 05;
 6BA : a9;
 6BB : fd;
 6BC : 9d;
 6BD : 04;
 6BE : 03;
 6BF : e8;
 6C0 : e8;
 6C1 : 88;
 6C2 : 10;
 6C3 : f8;
 6C4 : ad;
 6C5 : 37;
 6C6 : 05;
 6C7 : d0;
 6C8 : 2e;
 6C9 : a2;
 6CA : 0c;
 6CB : a0;
 6CC : 08;
 6CD : b9;
 6CE : 21;
 6CF : 81;
 6D0 : 9d;
 6D1 : 01;
 6D2 : 03;
 6D3 : e8;
 6D4 : 88;
 6D5 : 10;
 6D6 : f6;
 6D7 : a2;
 6D8 : 0c;
 6D9 : a4;
 6DA : 55;
 6DB : c8;
 6DC : 98;
 6DD : 9d;
 6DE : 04;
 6DF : 03;
 6E0 : a4;
 6E1 : 5f;
 6E2 : c8;
 6E3 : 98;
 6E4 : 9d;
 6E5 : 08;
 6E6 : 03;
 6E7 : ad;
 6E8 : 3c;
 6E9 : 05;
 6EA : d0;
 6EB : 0b;
 6EC : a9;
 6ED : 1c;
 6EE : 85;
 6EF : 3a;
 6F0 : 8d;
 6F1 : 3c;
 6F2 : 05;
 6F3 : a9;
 6F4 : 08;
 6F5 : 85;
 6F6 : fb;
 6F7 : a5;
 6F8 : 5f;
 6F9 : 0a;
 6FA : 0a;
 6FB : 85;
 6FC : 00;
 6FD : a5;
 6FE : be;
 6FF : 05;
 700 : 00;
 701 : aa;
 702 : a5;
 703 : 5f;
 704 : f0;
 705 : 04;
 706 : a5;
 707 : 6b;
 708 : 49;
 709 : 01;
 70A : 0a;
 70B : 7d;
 70C : 2a;
 70D : 81;
 70E : 8d;
 70F : aa;
 710 : 03;
 711 : 8d;
 712 : 7e;
 713 : 03;
 714 : 8d;
 715 : 7f;
 716 : 03;
 717 : 60;
 718 : 20;
 719 : cf;
 71A : 84;
 71B : a9;
 71C : 01;
 71D : 85;
 71E : 50;
 71F : 4a;
 720 : 85;
 721 : 4f;
 722 : 60;
 723 : ae;
 724 : 72;
 725 : 03;
 726 : a9;
 727 : 00;
 728 : 85;
 729 : 6a;
 72A : a5;
 72B : 3a;
 72C : 0d;
 72D : 66;
 72E : 03;
 72F : 0d;
 730 : 67;
 731 : 03;
 732 : d0;
 733 : 43;
 734 : a5;
 735 : 12;
 736 : f0;
 737 : 2b;
 738 : ad;
 739 : 3b;
 73A : 05;
 73B : d0;
 73C : 0e;
 73D : a9;
 73E : 0f;
 73F : 8d;
 740 : 3b;
 741 : 05;
 742 : ae;
 743 : 37;
 744 : 05;
 745 : d0;
 746 : 30;
 747 : 85;
 748 : 52;
 749 : d0;
 74A : 2c;
 74B : a5;
 74C : 37;
 74D : d0;
 74E : 28;
 74F : a9;
 750 : 10;
 751 : 85;
 752 : 52;
 753 : e6;
 754 : 51;
 755 : a9;
 756 : 01;
 757 : 85;
 758 : 6c;
 759 : 8d;
 75A : 69;
 75B : 03;
 75C : 85;
 75D : fb;
 75E : 4a;
 75F : 85;
 760 : 71;
 761 : f0;
 762 : 14;
 763 : a5;
 764 : 21;
 765 : d0;
 766 : 04;
 767 : a9;
 768 : 08;
 769 : 85;
 76A : fc;
 76B : a9;
 76C : 08;
 76D : 85;
 76E : 37;
 76F : 8d;
 770 : 8f;
 771 : 03;
 772 : bd;
 773 : 1f;
 774 : 81;
 775 : 85;
 776 : 6a;
 777 : 20;
 778 : 82;
 779 : a4;
 77A : 20;
 77B : 26;
 77C : a8;
 77D : 20;
 77E : 96;
 77F : a6;
 780 : 20;
 781 : 22;
 782 : 8e;
 783 : 4c;
 784 : eb;
 785 : a8;
 786 : ad;
 787 : 37;
 788 : 05;
 789 : f0;
 78A : 06;
 78B : 20;
 78C : e5;
 78D : 8d;
 78E : 4c;
 78F : b5;
 790 : 87;
 791 : a5;
 792 : 5f;
 793 : c9;
 794 : 03;
 795 : d0;
 796 : 03;
 797 : 20;
 798 : 3a;
 799 : ba;
 79A : ad;
 79B : 37;
 79C : 05;
 79D : f0;
 79E : 06;
 79F : 20;
 7A0 : e5;
 7A1 : 8d;
 7A2 : 4c;
 7A3 : b5;
 7A4 : 87;
 7A5 : ad;
 7A6 : 66;
 7A7 : 03;
 7A8 : 0d;
 7A9 : 67;
 7AA : 03;
 7AB : d0;
 7AC : 33;
 7AD : a5;
 7AE : 55;
 7AF : 0a;
 7B0 : aa;
 7B1 : b5;
 7B2 : 14;
 7B3 : 85;
 7B4 : 6a;
 7B5 : ae;
 7B6 : 6f;
 7B7 : 03;
 7B8 : ac;
 7B9 : 6e;
 7BA : 03;
 7BB : a5;
 7BC : 69;
 7BD : 8d;
 7BE : 6f;
 7BF : 03;
 7C0 : a5;
 7C1 : 68;
 7C2 : 8d;
 7C3 : 6e;
 7C4 : 03;
 7C5 : e4;
 7C6 : 69;
 7C7 : d0;
 7C8 : 04;
 7C9 : c4;
 7CA : 68;
 7CB : f0;
 7CC : 05;
 7CD : a9;
 7CE : 01;
 7CF : 8d;
 7D0 : 8f;
 7D1 : 03;
 7D2 : 20;
 7D3 : 96;
 7D4 : a6;
 7D5 : 20;
 7D6 : df;
 7D7 : ac;
 7D8 : ad;
 7D9 : 8f;
 7DA : 03;
 7DB : d0;
 7DC : 03;
 7DD : 20;
 7DE : 82;
 7DF : a4;
 7E0 : 20;
 7E1 : 34;
 7E2 : c0;
 7E3 : 20;
 7E4 : fa;
 7E5 : d7;
 7E6 : 20;
 7E7 : b9;
 7E8 : c1;
 7E9 : a5;
 7EA : 5f;
 7EB : c9;
 7EC : 04;
 7ED : d0;
 7EE : 03;
 7EF : 20;
 7F0 : 87;
 7F1 : d4;
 7F2 : 20;
 7F3 : c8;
 7F4 : b2;
 7F5 : 20;
 7F6 : 76;
 7F7 : b9;
 7F8 : 20;
 7F9 : 36;
 7FA : a9;
 7FB : 20;
 7FC : 22;
 7FD : 8e;
 7FE : 20;
 7FF : e8;
 800 : cc;
 801 : 20;
 802 : fd;
 803 : b8;
 804 : 20;
 805 : fd;
 806 : c5;
 807 : ad;
 808 : 66;
 809 : 03;
 80A : 0d;
 80B : 67;
 80C : 03;
 80D : d0;
 80E : 2e;
 80F : 20;
 810 : 99;
 811 : b8;
 812 : ad;
 813 : a6;
 814 : 04;
 815 : 30;
 816 : 38;
 817 : 20;
 818 : a4;
 819 : b9;
 81A : 20;
 81B : 3d;
 81C : c9;
 81D : a5;
 81E : 49;
 81F : 4a;
 820 : 90;
 821 : 09;
 822 : 20;
 823 : 8c;
 824 : c8;
 825 : 20;
 826 : 5a;
 827 : cd;
 828 : 4c;
 829 : 2e;
 82A : 88;
 82B : 20;
 82C : 08;
 82D : c2;
 82E : 20;
 82F : 26;
 830 : a8;
 831 : 20;
 832 : fe;
 833 : c6;
 834 : 20;
 835 : b2;
 836 : bf;
 837 : 20;
 838 : 97;
 839 : d6;
 83A : 20;
 83B : 89;
 83C : b7;
 83D : ad;
 83E : 8f;
 83F : 03;
 840 : f0;
 841 : 06;
 842 : 20;
 843 : eb;
 844 : a8;
 845 : 4c;
 846 : 52;
 847 : 88;
 848 : a5;
 849 : 70;
 84A : d0;
 84B : 06;
 84C : 20;
 84D : a5;
 84E : ba;
 84F : 20;
 850 : ab;
 851 : c7;
 852 : ad;
 853 : 88;
 854 : 03;
 855 : f0;
 856 : 76;
 857 : a5;
 858 : 86;
 859 : 05;
 85A : 36;
 85B : f0;
 85C : 0f;
 85D : c9;
 85E : 0a;
 85F : d0;
 860 : 6c;
 861 : ad;
 862 : 8f;
 863 : 04;
 864 : 85;
 865 : fd;
 866 : a9;
 867 : 00;
 868 : 8d;
 869 : 8f;
 86A : 04;
 86B : 60;
 86C : a6;
 86D : 55;
 86E : f0;
 86F : 02;
 870 : a2;
 871 : 07;
 872 : a0;
 873 : 00;
 874 : b9;
 875 : 30;
 876 : 05;
 877 : 9d;
 878 : 00;
 879 : 05;
 87A : c8;
 87B : e8;
 87C : c0;
 87D : 07;
 87E : 90;
 87F : f4;
 880 : a6;
 881 : 55;
 882 : d6;
 883 : 5c;
 884 : d0;
 885 : 21;
 886 : a2;
 887 : 20;
 888 : bd;
 889 : 63;
 88A : 81;
 88B : 9d;
 88C : 00;
 88D : 03;
 88E : ca;
 88F : 10;
 890 : f7;
 891 : a6;
 892 : 55;
 893 : e8;
 894 : 8e;
 895 : 05;
 896 : 03;
 897 : a9;
 898 : 10;
 899 : 85;
 89A : fb;
 89B : 8d;
 89C : 3b;
 89D : 05;
 89E : a9;
 89F : 04;
 8A0 : 85;
 8A1 : 51;
 8A2 : a9;
 8A3 : 24;
 8A4 : 85;
 8A5 : 36;
 8A6 : 60;
 8A7 : a5;
 8A8 : 54;
 8A9 : 29;
 8AA : 02;
 8AB : f0;
 8AC : 0a;
 8AD : 8a;
 8AE : 49;
 8AF : 01;
 8B0 : aa;
 8B1 : b5;
 8B2 : 5c;
 8B3 : f0;
 8B4 : 02;
 8B5 : 86;
 8B6 : 55;
 8B7 : a9;
 8B8 : 01;
 8B9 : 85;
 8BA : 51;
 8BB : a9;
 8BC : 02;
 8BD : 85;
 8BE : 35;
 8BF : a9;
 8C0 : 00;
 8C1 : 85;
 8C2 : 50;
 8C3 : 85;
 8C4 : 4f;
 8C5 : 8d;
 8C6 : 66;
 8C7 : 03;
 8C8 : 8d;
 8C9 : 67;
 8CA : 03;
 8CB : 85;
 8CC : 6f;
 8CD : 60;
 8CE : ad;
 8CF : 37;
 8D0 : 05;
 8D1 : d0;
 8D2 : 32;
 8D3 : a5;
 8D4 : 51;
 8D5 : c9;
 8D6 : 04;
 8D7 : d0;
 8D8 : 06;
 8D9 : a5;
 8DA : 5c;
 8DB : 05;
 8DC : 5d;
 8DD : f0;
 8DE : 26;
 8DF : ad;
 8E0 : 67;
 8E1 : 03;
 8E2 : d0;
 8E3 : 1e;
 8E4 : a5;
 8E5 : 15;
 8E6 : 29;
 8E7 : 10;
 8E8 : f0;
 8E9 : 1c;
 8EA : ad;
 8EB : 69;
 8EC : 03;
 8ED : d0;
 8EE : 17;
 8EF : a9;
 8F0 : 80;
 8F1 : 8d;
 8F2 : 69;
 8F3 : 03;
 8F4 : ad;
 8F5 : 66;
 8F6 : 03;
 8F7 : 49;
 8F8 : 01;
 8F9 : 8d;
 8FA : 66;
 8FB : 03;
 8FC : d0;
 8FD : 0c;
 8FE : a9;
 8FF : 80;
 900 : d0;
 901 : 0a;
 902 : ce;
 903 : 67;
 904 : 03;
 905 : 60;
 906 : 8d;
 907 : 69;
 908 : 03;
 909 : 60;
 90A : a9;
 90B : 40;
 90C : 85;
 90D : fb;
 90E : a9;
 90F : 28;
 910 : 8d;
 911 : 67;
 912 : 03;
 913 : 60;
 914 : ad;
 915 : 02;
 916 : 20;
 917 : 29;
 918 : 40;
 919 : d0;
 91A : f9;
 91B : a5;
 91C : 5f;
 91D : c9;
 91E : 03;
 91F : d0;
 920 : 03;
 921 : 20;
 922 : 3a;
 923 : ba;
 924 : 20;
 925 : 22;
 926 : 8e;
 927 : a5;
 928 : 5c;
 929 : 05;
 92A : 5d;
 92B : d0;
 92C : 0e;
 92D : a5;
 92E : 14;
 92F : 29;
 930 : 10;
 931 : f0;
 932 : 05;
 933 : ad;
 934 : 3b;
 935 : 05;
 936 : f0;
 937 : 17;
 938 : 8d;
 939 : 3b;
 93A : 05;
 93B : a5;
 93C : 36;
 93D : d0;
 93E : d4;
 93F : a5;
 940 : 5c;
 941 : 05;
 942 : 5d;
 943 : f0;
 944 : 0a;
 945 : a5;
 946 : 55;
 947 : 49;
 948 : 01;
 949 : 85;
 94A : 55;
 94B : aa;
 94C : 4c;
 94D : b7;
 94E : 88;
 94F : a9;
 950 : 00;
 951 : 8d;
 952 : 37;
 953 : 05;
 954 : 4c;
 955 : b9;
 956 : 88;
 957 : a9;
 958 : 19;
 959 : 85;
 95A : 52;
 95B : 60;
 95C : a9;
 95D : 11;
 95E : 85;
 95F : 52;
 960 : a9;
 961 : 01;
 962 : 85;
 963 : 61;
 964 : a9;
 965 : c0;
 966 : 85;
 967 : 12;
 968 : a2;
 969 : 03;
 96A : bd;
 96B : 52;
 96C : 81;
 96D : 9d;
 96E : 00;
 96F : 02;
 970 : ca;
 971 : 10;
 972 : f7;
 973 : a9;
 974 : 2c;
 975 : 85;
 976 : 39;
 977 : 4c;
 978 : 48;
 979 : bb;
 97A : a9;
 97B : 10;
 97C : 85;
 97D : 4b;
 97E : a9;
 97F : 00;
 980 : 85;
 981 : 4c;
 982 : 20;
 983 : c8;
 984 : b2;
 985 : 20;
 986 : 03;
 987 : 8a;
 988 : ad;
 989 : 02;
 98A : 20;
 98B : 29;
 98C : 40;
 98D : f0;
 98E : f9;
 98F : 20;
 990 : 85;
 991 : 8e;
 992 : a5;
 993 : 38;
 994 : d0;
 995 : 08;
 996 : a9;
 997 : 05;
 998 : 85;
 999 : 38;
 99A : a9;
 99B : 10;
 99C : 85;
 99D : fd;
 99E : a5;
 99F : 39;
 9A0 : c9;
 9A1 : 10;
 9A2 : d0;
 9A3 : 22;
 9A4 : a5;
 9A5 : 20;
 9A6 : c9;
 9A7 : 01;
 9A8 : d0;
 9A9 : 1c;
 9AA : a9;
 9AB : 13;
 9AC : 85;
 9AD : 52;
 9AE : a0;
 9AF : 6f;
 9B0 : a9;
 9B1 : c8;
 9B2 : a2;
 9B3 : 04;
 9B4 : 9d;
 9B5 : 0b;
 9B6 : 02;
 9B7 : 98;
 9B8 : 9d;
 9B9 : 08;
 9BA : 02;
 9BB : a9;
 9BC : f5;
 9BD : 9d;
 9BE : 09;
 9BF : 02;
 9C0 : a9;
 9C1 : 02;
 9C2 : 9d;
 9C3 : 0a;
 9C4 : 02;
 9C5 : 60;
 9C6 : a5;
 9C7 : 21;
 9C8 : d0;
 9C9 : 0d;
 9CA : a9;
 9CB : 06;
 9CC : 85;
 9CD : 21;
 9CE : a5;
 9CF : 68;
 9D0 : 49;
 9D1 : 01;
 9D2 : 85;
 9D3 : 68;
 9D4 : 4c;
 9D5 : eb;
 9D6 : a8;
 9D7 : a5;
 9D8 : 26;
 9D9 : d0;
 9DA : 21;
 9DB : a9;
 9DC : 0c;
 9DD : 85;
 9DE : 26;
 9DF : ad;
 9E0 : 3b;
 9E1 : 05;
 9E2 : 49;
 9E3 : 01;
 9E4 : 8d;
 9E5 : 3b;
 9E6 : 05;
 9E7 : d0;
 9E8 : 06;
 9E9 : a9;
 9EA : 12;
 9EB : a0;
 9EC : 6f;
 9ED : d0;
 9EE : 04;
 9EF : a9;
 9F0 : 14;
 9F1 : a0;
 9F2 : f8;
 9F3 : 85;
 9F4 : 52;
 9F5 : a9;
 9F6 : 58;
 9F7 : a2;
 9F8 : 00;
 9F9 : 20;
 9FA : b4;
 9FB : 89;
 9FC : a5;
 9FD : 39;
 9FE : d0;
 9FF : c5;
 A00 : 4c;
 A01 : b7;
 A02 : 88;
 A03 : a9;
 A04 : 18;
 A05 : 85;
 A06 : 4e;
 A07 : a5;
 A08 : 49;
 A09 : 4a;
 A0A : 90;
 A0B : 0c;
 A0C : 20;
 A0D : 2e;
 A0E : 8a;
 A0F : 20;
 A10 : 4d;
 A11 : 8a;
 A12 : 20;
 A13 : 6c;
 A14 : 8a;
 A15 : 4c;
 A16 : 25;
 A17 : 8a;
 A18 : ea;
 A19 : 20;
 A1A : 4d;
 A1B : 8a;
 A1C : 20;
 A1D : 2e;
 A1E : 8a;
 A1F : 20;
 A20 : 6c;
 A21 : 8a;
 A22 : 4c;
 A23 : 25;
 A24 : 8a;
 A25 : a9;
 A26 : 00;
 A27 : 85;
 A28 : 4b;
 A29 : 85;
 A2A : 4c;
 A2B : 85;
 A2C : 4d;
 A2D : 60;
 A2E : a6;
 A2F : 4e;
 A30 : a0;
 A31 : 00;
 A32 : a5;
 A33 : 4b;
 A34 : f0;
 A35 : 14;
 A36 : b9;
 A37 : 00;
 A38 : 06;
 A39 : 9d;
 A3A : 00;
 A3B : 02;
 A3C : e8;
 A3D : e0;
 A3E : fc;
 A3F : b0;
 A40 : 09;
 A41 : 98;
 A42 : 18;
 A43 : 69;
 A44 : 01;
 A45 : a8;
 A46 : c4;
 A47 : 4b;
 A48 : d0;
 A49 : ec;
 A4A : 86;
 A4B : 4e;
 A4C : 60;
 A4D : a6;
 A4E : 4e;
 A4F : a0;
 A50 : 00;
 A51 : a5;
 A52 : 4c;
 A53 : f0;
 A54 : 14;
 A55 : b9;
 A56 : d0;
 A57 : 06;
 A58 : 9d;
 A59 : 00;
 A5A : 02;
 A5B : e8;
 A5C : e0;
 A5D : fc;
 A5E : b0;
 A5F : 09;
 A60 : 98;
 A61 : 18;
 A62 : 69;
 A63 : 01;
 A64 : a8;
 A65 : c4;
 A66 : 4c;
 A67 : d0;
 A68 : ec;
 A69 : 86;
 A6A : 4e;
 A6B : 60;
 A6C : a6;
 A6D : 4e;
 A6E : a0;
 A6F : 00;
 A70 : a5;
 A71 : 4d;
 A72 : f0;
 A73 : 16;
 A74 : b9;
 A75 : 30;
 A76 : 07;
 A77 : 9d;
 A78 : 00;
 A79 : 02;
 A7A : e8;
 A7B : e0;
 A7C : fc;
 A7D : b0;
 A7E : 09;
 A7F : 98;
 A80 : 18;
 A81 : 69;
 A82 : 01;
 A83 : a8;
 A84 : c4;
 A85 : 4d;
 A86 : d0;
 A87 : ec;
 A88 : 86;
 A89 : 4e;
 A8A : a6;
 A8B : 4e;
 A8C : a0;
 A8D : 00;
 A8E : a5;
 A8F : 00;
 A90 : d0;
 A91 : 00;
 A92 : b9;
 A93 : 2f;
 A94 : 05;
 A95 : 9d;
 A96 : 00;
 A97 : 02;
 A98 : 8a;
 A99 : 18;
 A9A : 69;
 A9B : 01;
 A9C : aa;
 A9D : 98;
 A9E : 18;
 A9F : 69;
 AA0 : 00;
 AA1 : a8;
 AA2 : e0;
 AA3 : 00;
 AA4 : d0;
 AA5 : ec;
 AA6 : 60;
 AA7 : ad;
 AA8 : 66;
 AA9 : 03;
 AAA : 0d;
 AAB : 67;
 AAC : 03;
 AAD : d0;
 AAE : 03;
 AAF : 20;
 AB0 : d6;
 AB1 : 8a;
 AB2 : 20;
 AB3 : e8;
 AB4 : cc;
 AB5 : a2;
 AB6 : 00;
 AB7 : e4;
 AB8 : 4b;
 AB9 : b0;
 ABA : 15;
 ABB : bd;
 ABC : 00;
 ABD : 06;
 ABE : c9;
 ABF : 6c;
 AC0 : b0;
 AC1 : 08;
 AC2 : bd;
 AC3 : 02;
 AC4 : 06;
 AC5 : 09;
 AC6 : 20;
 AC7 : 9d;
 AC8 : 02;
 AC9 : 06;
 ACA : e8;
 ACB : e8;
 ACC : e8;
 ACD : e8;
 ACE : d0;
 ACF : e7;
 AD0 : 20;
 AD1 : 22;
 AD2 : 8e;
 AD3 : 4c;
 AD4 : ba;
 AD5 : b2;
 AD6 : a5;
 AD7 : 60;
 AD8 : 0a;
 AD9 : a8;
 ADA : b9;
 ADB : 3e;
 ADC : 81;
 ADD : 85;
 ADE : 00;
 ADF : c8;
 AE0 : b9;
 AE1 : 3e;
 AE2 : 81;
 AE3 : 85;
 AE4 : 01;
 AE5 : 6c;
 AE6 : 00;
 AE7 : 00;
 AE8 : a5;
 AE9 : 38;
 AEA : f0;
 AEB : 33;
 AEC : a9;
 AED : 00;
 AEE : 85;
 AEF : 67;
 AF0 : 85;
 AF1 : 63;
 AF2 : 20;
 AF3 : 26;
 AF4 : a8;
 AF5 : a5;
 AF6 : 69;
 AF7 : 4a;
 AF8 : d0;
 AF9 : 0c;
 AFA : a5;
 AFB : 68;
 AFC : f0;
 AFD : 08;
 AFE : a9;
 AFF : 01;
 B00 : 8d;
 B01 : 6e;
 B02 : 03;
 B03 : 4a;
 B04 : 85;
 B05 : 68;
 B06 : ad;
 B07 : 6e;
 B08 : 03;
 B09 : a6;
 B0A : 68;
 B0B : 8e;
 B0C : 6e;
 B0D : 03;
 B0E : c5;
 B0F : 68;
 B10 : d0;
 B11 : 04;
 B12 : a9;
 B13 : 00;
 B14 : f0;
 B15 : 05;
 B16 : 20;
 B17 : eb;
 B18 : a8;
 B19 : a9;
 B1A : 01;
 B1B : 8d;
 B1C : 8f;
 B1D : 03;
 B1E : 60;
 B1F : ad;
 B20 : 72;
 B21 : 03;
 B22 : 85;
 B23 : c6;
 B24 : a9;
 B25 : 09;
 B26 : 8d;
 B27 : 8a;
 B28 : 03;
 B29 : a9;
 B2A : 80;
 B2B : 8d;
 B2C : 8b;
 B2D : 03;
 B2E : a9;
 B2F : 15;
 B30 : 85;
 B31 : 52;
 B32 : a5;
 B33 : 5f;
 B34 : c9;
 B35 : 04;
 B36 : d0;
 B37 : 48;
 B38 : a9;
 B39 : 06;
 B3A : 85;
 B3B : 60;
 B3C : a9;
 B3D : 16;
 B3E : 85;
 B3F : 52;
 B40 : 4c;
 B41 : 48;
 B42 : bb;
 B43 : a9;
 B44 : 0a;
 B45 : 18;
 B46 : 6d;
 B47 : 72;
 B48 : 03;
 B49 : 85;
 B4A : 52;
 B4B : d0;
 B4C : 33;
 B4D : a9;
 B4E : 04;
 B4F : 38;
 B50 : ed;
 B51 : 72;
 B52 : 03;
 B53 : a8;
 B54 : aa;
 B55 : 20;
 B56 : be;
 B57 : a7;
 B58 : a5;
 B59 : 65;
 B5A : 29;
 B5B : 01;
 B5C : 85;
 B5D : 61;
 B5E : 98;
 B5F : 49;
 B60 : 07;
 B61 : a8;
 B62 : 20;
 B63 : f5;
 B64 : a7;
 B65 : a5;
 B66 : 64;
 B67 : d0;
 B68 : 1e;
 B69 : c6;
 B6A : ce;
 B6B : a9;
 B6C : 04;
 B6D : 85;
 B6E : fe;
 B6F : 85;
 B70 : 38;
 B71 : c5;
 B72 : 5f;
 B73 : f0;
 B74 : 0b;
 B75 : 0a;
 B76 : 85;
 B77 : 63;
 B78 : a9;
 B79 : 1b;
 B7A : 85;
 B7B : 52;
 B7C : a9;
 B7D : 01;
 B7E : 85;
 B7F : 86;
 B80 : e6;
 B81 : 60;
 B82 : a9;
 B83 : 00;
 B84 : 8d;
 B85 : 3b;
 B86 : 05;
 B87 : 60;
 B88 : a2;
 B89 : 06;
 B8A : ad;
 B8B : 3b;
 B8C : 05;
 B8D : d0;
 B8E : 26;
 B8F : a4;
 B90 : c6;
 B91 : d0;
 B92 : 01;
 B93 : 88;
 B94 : a5;
 B95 : 30;
 B96 : d0;
 B97 : 04;
 B98 : a9;
 B99 : 08;
 B9A : 85;
 B9B : fc;
 B9C : 20;
 B9D : e7;
 B9E : d4;
 B9F : a5;
 BA0 : 94;
 BA1 : c9;
 BA2 : 5c;
 BA3 : 90;
 BA4 : 04;
 BA5 : c9;
 BA6 : a4;
 BA7 : 90;
 BA8 : de;
 BA9 : a9;
 BAA : 01;
 BAB : 8d;
 BAC : 3b;
 BAD : 05;
 BAE : 0a;
 BAF : 85;
 BB0 : bd;
 BB1 : 0a;
 BB2 : 85;
 BB3 : 21;
 BB4 : 60;
 BB5 : a5;
 BB6 : 21;
 BB7 : d0;
 BB8 : ce;
 BB9 : a9;
 BBA : 08;
 BBB : 85;
 BBC : fc;
 BBD : a9;
 BBE : 0c;
 BBF : 85;
 BC0 : 21;
 BC1 : a5;
 BC2 : bd;
 BC3 : 49;
 BC4 : 03;
 BC5 : 85;
 BC6 : bd;
 BC7 : 4a;
 BC8 : d0;
 BC9 : bd;
 BCA : a5;
 BCB : b6;
 BCC : c9;
 BCD : 40;
 BCE : b0;
 BCF : 16;
 BD0 : a9;
 BD1 : 00;
 BD2 : 85;
 BD3 : 86;
 BD4 : ad;
 BD5 : a6;
 BD6 : 04;
 BD7 : d0;
 BD8 : 03;
 BD9 : ee;
 BDA : a6;
 BDB : 04;
 BDC : a9;
 BDD : 18;
 BDE : 85;
 BDF : 38;
 BE0 : a9;
 BE1 : 04;
 BE2 : 85;
 BE3 : fb;
 BE4 : d0;
 BE5 : 9a;
 BE6 : e9;
 BE7 : 08;
 BE8 : 85;
 BE9 : b6;
 BEA : a0;
 BEB : 08;
 BEC : a5;
 BED : c6;
 BEE : d0;
 BEF : 02;
 BF0 : a0;
 BF1 : f8;
 BF2 : 4c;
 BF3 : 1f;
 BF4 : b2;
 BF5 : a5;
 BF6 : 38;
 BF7 : d0;
 BF8 : 22;
 BF9 : 20;
 BFA : ab;
 BFB : c7;
 BFC : a5;
 BFD : 49;
 BFE : 29;
 BFF : 03;
 C00 : d0;
 C01 : 04;
 C02 : a9;
 C03 : 02;
 C04 : 85;
 C05 : fe;
 C06 : ad;
 C07 : 3b;
 C08 : 05;
 C09 : d0;
 C0A : 11;
 C0B : a5;
 C0C : 34;
 C0D : d0;
 C0E : 0c;
 C0F : a9;
 C10 : 02;
 C11 : 85;
 C12 : 34;
 C13 : 20;
 C14 : 9d;
 C15 : cc;
 C16 : 90;
 C17 : 03;
 C18 : ee;
 C19 : 3b;
 C1A : 05;
 C1B : 60;
 C1C : 20;
 C1D : c7;
 C1E : cc;
 C1F : 90;
 C20 : fa;
 C21 : a9;
 C22 : 05;
 C23 : 85;
 C24 : 38;
 C25 : a6;
 C26 : 55;
 C27 : f0;
 C28 : 02;
 C29 : a2;
 C2A : 07;
 C2B : a0;
 C2C : 00;
 C2D : b9;
 C2E : 30;
 C2F : 05;
 C30 : 9d;
 C31 : 00;
 C32 : 05;
 C33 : c8;
 C34 : e8;
 C35 : c0;
 C36 : 07;
 C37 : 90;
 C38 : f4;
 C39 : 4c;
 C3A : 80;
 C3B : 8b;
 C3C : a5;
 C3D : 38;
 C3E : 05;
 C3F : 39;
 C40 : d0;
 C41 : d9;
 C42 : a6;
 C43 : 55;
 C44 : f6;
 C45 : 58;
 C46 : b5;
 C47 : 58;
 C48 : c9;
 C49 : 05;
 C4A : 90;
 C4B : 0f;
 C4C : a9;
 C4D : 00;
 C4E : 95;
 C4F : 58;
 C50 : 85;
 C51 : 35;
 C52 : f6;
 C53 : 56;
 C54 : a9;
 C55 : 06;
 C56 : 85;
 C57 : 51;
 C58 : 4c;
 C59 : bf;
 C5A : 88;
 C5B : c9;
 C5C : 02;
 C5D : f0;
 C5E : 07;
 C5F : c9;
 C60 : 04;
 C61 : f0;
 C62 : 03;
 C63 : 4c;
 C64 : b7;
 C65 : 88;
 C66 : a9;
 C67 : 05;
 C68 : 4c;
 C69 : b9;
 C6A : 88;
 C6B : a5;
 C6C : 38;
 C6D : d0;
 C6E : ac;
 C6F : 85;
 C70 : 69;
 C71 : a9;
 C72 : 01;
 C73 : 85;
 C74 : 68;
 C75 : 20;
 C76 : eb;
 C77 : a8;
 C78 : a9;
 C79 : 01;
 C7A : 85;
 C7B : b7;
 C7C : 4a;
 C7D : 85;
 C7E : df;
 C7F : a9;
 C80 : 50;
 C81 : 85;
 C82 : ce;
 C83 : a9;
 C84 : 8f;
 C85 : 85;
 C86 : b0;
 C87 : 4c;
 C88 : d4;
 C89 : 8b;
 C8A : 5f;
 C8B : f5;
 C8C : 02;
 C8D : c0;
 C8E : 90;
 C8F : 09;
 C90 : 01;
 C91 : 64;
 C92 : 80;
 C93 : 09;
 C94 : 01;
 C95 : 6c;
 C96 : 78;
 C97 : 09;
 C98 : 01;
 C99 : 7c;
 C9A : 80;
 C9B : 09;
 C9C : 01;
 C9D : 8c;
 C9E : 90;
 C9F : 09;
 CA0 : 01;
 CA1 : 94;
 CA2 : 10;
 CA3 : 04;
 CA4 : 0c;
 CA5 : 00;
 CA6 : 08;
 CA7 : 83;
 CA8 : 7a;
 CA9 : 76;
 CAA : 78;
 CAB : 7e;
 CAC : 86;
 CAD : 90;
 CAE : 9a;
 CAF : a4;
 CB0 : ac;
 CB1 : b4;
 CB2 : ba;
 CB3 : c0;
 CB4 : 7c;
 CB5 : 84;
 CB6 : 8e;
 CB7 : 98;
 CB8 : a0;
 CB9 : a6;
 CBA : a8;
 CBB : a4;
 CBC : 9e;
 CBD : 96;
 CBE : 8e;
 CBF : 85;
 CC0 : 7c;
 CC1 : a5;
 CC2 : 39;
 CC3 : d0;
 CC4 : 22;
 CC5 : ee;
 CC6 : a0;
 CC7 : 03;
 CC8 : ae;
 CC9 : a0;
 CCA : 03;
 CCB : e0;
 CCC : 03;
 CCD : d0;
 CCE : 10;
 CCF : 86;
 CD0 : 35;
 CD1 : a2;
 CD2 : 00;
 CD3 : 8e;
 CD4 : a0;
 CD5 : 03;
 CD6 : 8e;
 CD7 : a1;
 CD8 : 03;
 CD9 : e8;
 CDA : 86;
 CDB : 51;
 CDC : 4c;
 CDD : bf;
 CDE : 88;
 CDF : a9;
 CE0 : 22;
 CE1 : 85;
 CE2 : 52;
 CE3 : a9;
 CE4 : 18;
 CE5 : 85;
 CE6 : 39;
 CE7 : 20;
 CE8 : ba;
 CE9 : b2;
 CEA : a6;
 CEB : 4b;
 CEC : ac;
 CED : a0;
 CEE : 03;
 CEF : d0;
 CF0 : 0e;
 CF1 : b9;
 CF2 : 8a;
 CF3 : 8c;
 CF4 : 9d;
 CF5 : 00;
 CF6 : 06;
 CF7 : e8;
 CF8 : c8;
 CF9 : c0;
 CFA : 04;
 CFB : d0;
 CFC : f4;
 CFD : 86;
 CFE : 4b;
 CFF : a0;
 D00 : 00;
 D01 : a5;
 D02 : 5e;
 D03 : d0;
 D04 : 37;
 D05 : b9;
 D06 : 8e;
 D07 : 8c;
 D08 : 9d;
 D09 : 00;
 D0A : 06;
 D0B : e8;
 D0C : c8;
 D0D : c0;
 D0E : 14;
 D0F : d0;
 D10 : f4;
 D11 : a5;
 D12 : 33;
 D13 : d0;
 D14 : 13;
 D15 : a9;
 D16 : 10;
 D17 : 85;
 D18 : 33;
 D19 : ee;
 D1A : a1;
 D1B : 03;
 D1C : ad;
 D1D : a1;
 D1E : 03;
 D1F : c9;
 D20 : 05;
 D21 : 90;
 D22 : 05;
 D23 : a9;
 D24 : 00;
 D25 : 8d;
 D26 : a1;
 D27 : 03;
 D28 : ac;
 D29 : a1;
 D2A : 03;
 D2B : b9;
 D2C : a2;
 D2D : 8c;
 D2E : 18;
 D2F : 65;
 D30 : 4b;
 D31 : a8;
 D32 : 86;
 D33 : 4b;
 D34 : a9;
 D35 : f8;
 D36 : 99;
 D37 : 00;
 D38 : 06;
 D39 : 4c;
 D3A : 03;
 D3B : 8a;
 D3C : b9;
 D3D : a7;
 D3E : 8c;
 D3F : 20;
 D40 : 8c;
 D41 : 8d;
 D42 : a9;
 D43 : 09;
 D44 : 20;
 D45 : 8c;
 D46 : 8d;
 D47 : a9;
 D48 : 01;
 D49 : 20;
 D4A : 8c;
 D4B : 8d;
 D4C : b9;
 D4D : b4;
 D4E : 8c;
 D4F : 9d;
 D50 : 00;
 D51 : 06;
 D52 : 38;
 D53 : e9;
 D54 : 7c;
 D55 : 85;
 D56 : 00;
 D57 : a9;
 D58 : 7c;
 D59 : 38;
 D5A : e5;
 D5B : 00;
 D5C : 20;
 D5D : 8f;
 D5E : 8d;
 D5F : c8;
 D60 : c0;
 D61 : 0d;
 D62 : d0;
 D63 : d8;
 D64 : 8a;
 D65 : 18;
 D66 : 69;
 D67 : 34;
 D68 : aa;
 D69 : ad;
 D6A : a1;
 D6B : 03;
 D6C : a4;
 D6D : 33;
 D6E : d0;
 D6F : 0d;
 D70 : a0;
 D71 : 03;
 D72 : 84;
 D73 : 33;
 D74 : 18;
 D75 : 69;
 D76 : 04;
 D77 : c9;
 D78 : 34;
 D79 : 90;
 D7A : 02;
 D7B : a9;
 D7C : 00;
 D7D : 8d;
 D7E : a1;
 D7F : 03;
 D80 : 18;
 D81 : 65;
 D82 : 4b;
 D83 : a8;
 D84 : a9;
 D85 : f8;
 D86 : 99;
 D87 : 34;
 D88 : 06;
 D89 : 4c;
 D8A : 32;
 D8B : 8d;
 D8C : 9d;
 D8D : 00;
 D8E : 06;
 D8F : 9d;
 D90 : 34;
 D91 : 06;
 D92 : e8;
 D93 : 60;
 D94 : 20;
 D95 : b1;
 D96 : 8f;
 D97 : ad;
 D98 : 02;
 D99 : 20;
 D9A : a5;
 D9B : 10;
 D9C : 29;
 D9D : fb;
 D9E : 8d;
 D9F : 00;
 DA0 : 20;
 DA1 : a9;
 DA2 : 21;
 DA3 : 8d;
 DA4 : 06;
 DA5 : 20;
 DA6 : a9;
 DA7 : 20;
 DA8 : 8d;
 DA9 : 06;
 DAA : 20;
 DAB : a2;
 DAC : 02;
 DAD : a0;
 DAE : 20;
 DAF : a9;
 DB0 : fc;
 DB1 : 8d;
 DB2 : 07;
 DB3 : 20;
 DB4 : c8;
 DB5 : d0;
 DB6 : fa;
 DB7 : ca;
 DB8 : d0;
 DB9 : f7;
 DBA : 8d;
 DBB : 07;
 DBC : 20;
 DBD : c8;
 DBE : c0;
 DBF : c0;
 DC0 : 90;
 DC1 : f8;
 DC2 : a9;
 DC3 : 20;
 DC4 : 85;
 DC5 : fb;
 DC6 : a9;
 DC7 : f8;
 DC8 : 8d;
 DC9 : 00;
 DCA : 02;
 DCB : a9;
 DCC : 1a;
 DCD : d0;
 DCE : 0a;
 DCF : a9;
 DD0 : 00;
 DD1 : 85;
 DD2 : 33;
 DD3 : a9;
 DD4 : 1b;
 DD5 : 85;
 DD6 : 39;
 DD7 : a9;
 DD8 : 21;
 DD9 : 85;
 DDA : 52;
 DDB : 60;
 DDC : a9;
 DDD : 00;
 DDE : 85;
 DDF : 47;
 DE0 : 85;
 DE1 : 79;
 DE2 : 4c;
 DE3 : 05;
 DE4 : cd;
 DE5 : ac;
 DE6 : cd;
 DE7 : 03;
 DE8 : ad;
 DE9 : 39;
 DEA : 05;
 DEB : d0;
 DEC : 0c;
 DED : c8;
 DEE : ee;
 DEF : cd;
 DF0 : 03;
 DF1 : b9;
 DF2 : ee;
 DF3 : 81;
 DF4 : 8d;
 DF5 : 39;
 DF6 : 05;
 DF7 : f0;
 DF8 : 11;
 DF9 : b9;
 DFA : 84;
 DFB : 81;
 DFC : 85;
 DFD : 6a;
 DFE : 29;
 DFF : c0;
 E00 : 2d;
 E01 : 6b;
 E02 : 03;
 E03 : 8d;
 E04 : 6b;
 E05 : 03;
 E06 : ce;
 E07 : 39;
 E08 : 05;
 E09 : 60;
 E0A : 4c;
 E0B : 4f;
 E0C : 89;
 E0D : ad;
 E0E : 02;
 E0F : 20;
 E10 : a9;
 E11 : 00;
 E12 : 8d;
 E13 : 05;
 E14 : 20;
 E15 : 8d;
 E16 : 05;
 E17 : 20;
 E18 : a5;
 E19 : 10;
 E1A : 29;
 E1B : f0;
 E1C : 8d;
 E1D : 00;
 E1E : 20;
 E1F : 85;
 E20 : 10;
 E21 : 60;
 E22 : ad;
 E23 : 02;
 E24 : 20;
 E25 : 29;
 E26 : 40;
 E27 : f0;
 E28 : f9;
 E29 : ea;
 E2A : ea;
 E2B : ea;
 E2C : 20;
 E2D : 85;
 E2E : 8e;
 E2F : 20;
 E30 : fe;
 E31 : d5;
 E32 : 20;
 E33 : d8;
 E34 : b9;
 E35 : 20;
 E36 : 0d;
 E37 : ba;
 E38 : a2;
 E39 : 22;
 E3A : 20;
 E3B : bd;
 E3C : 8e;
 E3D : a5;
 E3E : 71;
 E3F : f0;
 E40 : 0f;
 E41 : 20;
 E42 : 0d;
 E43 : 8e;
 E44 : a2;
 E45 : 30;
 E46 : 20;
 E47 : bd;
 E48 : 8e;
 E49 : 20;
 E4A : 9b;
 E4B : 8e;
 E4C : a2;
 E4D : 42;
 E4E : d0;
 E4F : 32;
 E50 : 20;
 E51 : 9b;
 E52 : 8e;
 E53 : 20;
 E54 : 03;
 E55 : 8a;
 E56 : 20;
 E57 : a4;
 E58 : cb;
 E59 : 20;
 E5A : 72;
 E5B : c7;
 E5C : ad;
 E5D : 8f;
 E5E : 03;
 E5F : d0;
 E60 : 1f;
 E61 : a5;
 E62 : 70;
 E63 : 49;
 E64 : 01;
 E65 : 85;
 E66 : 70;
 E67 : f0;
 E68 : 0d;
 E69 : 20;
 E6A : ff;
 E6B : cb;
 E6C : 20;
 E6D : 31;
 E6E : cc;
 E6F : 20;
 E70 : cf;
 E71 : cb;
 E72 : a2;
 E73 : 0e;
 E74 : d0;
 E75 : 0c;
 E76 : 20;
 E77 : 6b;
 E78 : cc;
 E79 : 20;
 E7A : 05;
 E7B : cd;
 E7C : a2;
 E7D : 10;
 E7E : d0;
 E7F : 02;
 E80 : a2;
 E81 : 12;
 E82 : 20;
 E83 : bd;
 E84 : 8e;
 E85 : ad;
 E86 : 02;
 E87 : 20;
 E88 : a5;
 E89 : 12;
 E8A : 8d;
 E8B : 05;
 E8C : 20;
 E8D : a9;
 E8E : 00;
 E8F : 8d;
 E90 : 05;
 E91 : 20;
 E92 : a5;
 E93 : 61;
 E94 : 29;
 E95 : 01;
 E96 : 05;
 E97 : 63;
 E98 : 4c;
 E99 : af;
 E9A : 8e;
 E9B : ad;
 E9C : 02;
 E9D : 20;
 E9E : a5;
 E9F : 64;
 EA0 : 8d;
 EA1 : 05;
 EA2 : 20;
 EA3 : a9;
 EA4 : 00;
 EA5 : 8d;
 EA6 : 05;
 EA7 : 20;
 EA8 : a5;
 EA9 : 62;
 EAA : 29;
 EAB : 01;
 EAC : 4c;
 EAD : af;
 EAE : 8e;
 EAF : 85;
 EB0 : 00;
 EB1 : a5;
 EB2 : 10;
 EB3 : 29;
 EB4 : f8;
 EB5 : 05;
 EB6 : 00;
 EB7 : 8d;
 EB8 : 00;
 EB9 : 20;
 EBA : 85;
 EBB : 10;
 EBC : 60;
 EBD : a0;
 EBE : 10;
 EBF : 88;
 EC0 : d0;
 EC1 : fd;
 EC2 : ca;
 EC3 : d0;
 EC4 : f8;
 EC5 : 60;
 EC6 : a0;
 EC7 : 06;
 EC8 : a9;
 EC9 : ff;
 ECA : 99;
 ECB : 5f;
 ECC : 03;
 ECD : 88;
 ECE : d0;
 ECF : fa;
 ED0 : b1;
 ED1 : 03;
 ED2 : 85;
 ED3 : 07;
 ED4 : a6;
 ED5 : 01;
 ED6 : a5;
 ED7 : 05;
 ED8 : 29;
 ED9 : 40;
 EDA : d0;
 EDB : 16;
 EDC : a5;
 EDD : 00;
 EDE : e0;
 EDF : 01;
 EE0 : d0;
 EE1 : 03;
 EE2 : 99;
 EE3 : 60;
 EE4 : 03;
 EE5 : 18;
 EE6 : 69;
 EE7 : 08;
 EE8 : 90;
 EE9 : 01;
 EEA : e8;
 EEB : c8;
 EEC : c4;
 EED : 07;
 EEE : d0;
 EEF : ee;
 EF0 : f0;
 EF1 : 14;
 EF2 : a4;
 EF3 : 07;
 EF4 : a5;
 EF5 : 00;
 EF6 : e0;
 EF7 : 01;
 EF8 : d0;
 EF9 : 03;
 EFA : 99;
 EFB : 5f;
 EFC : 03;
 EFD : 18;
 EFE : 69;
 EFF : 08;
 F00 : 90;
 F01 : 01;
 F02 : e8;
 F03 : 88;
 F04 : d0;
 F05 : f0;
 F06 : a0;
 F07 : 01;
 F08 : b1;
 F09 : 03;
 F0A : 85;
 F0B : 07;
 F0C : c8;
 F0D : b1;
 F0E : 03;
 F0F : 85;
 F10 : 08;
 F11 : a6;
 F12 : 08;
 F13 : bd;
 F14 : 60;
 F15 : 03;
 F16 : c9;
 F17 : ff;
 F18 : f0;
 F19 : 33;
 F1A : 85;
 F1B : 00;
 F1C : c8;
 F1D : b1;
 F1E : 03;
 F1F : 85;
 F20 : 0a;
 F21 : c8;
 F22 : b1;
 F23 : 03;
 F24 : 18;
 F25 : 65;
 F26 : 02;
 F27 : a6;
 F28 : 06;
 F29 : 85;
 F2A : 01;
 F2B : 9d;
 F2C : 00;
 F2D : 06;
 F2E : c8;
 F2F : b1;
 F30 : 03;
 F31 : 9d;
 F32 : 01;
 F33 : 06;
 F34 : a5;
 F35 : 00;
 F36 : 9d;
 F37 : 03;
 F38 : 06;
 F39 : a5;
 F3A : 05;
 F3B : 9d;
 F3C : 02;
 F3D : 06;
 F3E : e8;
 F3F : e8;
 F40 : e8;
 F41 : e8;
 F42 : a9;
 F43 : 08;
 F44 : 18;
 F45 : 65;
 F46 : 01;
 F47 : c6;
 F48 : 0a;
 F49 : d0;
 F4A : de;
 F4B : 86;
 F4C : 06;
 F4D : e6;
 F4E : 08;
 F4F : c6;
 F50 : 07;
 F51 : d0;
 F52 : be;
 F53 : 60;
 F54 : a9;
 F55 : 00;
 F56 : 8d;
 F57 : 00;
 F58 : 03;
 F59 : 8d;
 F5A : 01;
 F5B : 03;
 F5C : a9;
 F5D : 20;
 F5E : 20;
 F5F : 63;
 F60 : 8f;
 F61 : a9;
 F62 : 24;
 F63 : 85;
 F64 : 00;
 F65 : ad;
 F66 : 02;
 F67 : 20;
 F68 : a5;
 F69 : 10;
 F6A : 29;
 F6B : fb;
 F6C : 8d;
 F6D : 00;
 F6E : 20;
 F6F : a5;
 F70 : 00;
 F71 : 8d;
 F72 : 06;
 F73 : 20;
 F74 : a9;
 F75 : 00;
 F76 : 8d;
 F77 : 06;
 F78 : 20;
 F79 : a2;
 F7A : 04;
 F7B : a0;
 F7C : 00;
 F7D : a9;
 F7E : fc;
 F7F : 8d;
 F80 : 07;
 F81 : 20;
 F82 : 88;
 F83 : d0;
 F84 : fa;
 F85 : ca;
 F86 : d0;
 F87 : f7;
 F88 : a5;
 F89 : 00;
 F8A : 18;
 F8B : 69;
 F8C : 03;
 F8D : 8d;
 F8E : 06;
 F8F : 20;
 F90 : a9;
 F91 : c0;
 F92 : 8d;
 F93 : 06;
 F94 : 20;
 F95 : a0;
 F96 : 40;
 F97 : a9;
 F98 : 00;
 F99 : 8d;
 F9A : 07;
 F9B : 20;
 F9C : 88;
 F9D : d0;
 F9E : fa;
 F9F : 60;
 FA0 : a9;
 FA1 : 00;
 FA2 : 8d;
 FA3 : 01;
 FA4 : 20;
 FA5 : 60;
 FA6 : a9;
 FA7 : f8;
 FA8 : a0;
 FA9 : 00;
 FAA : 99;
 FAB : 00;
 FAC : 02;
 FAD : 88;
 FAE : d0;
 FAF : fa;
 FB0 : 60;
 FB1 : a9;
 FB2 : 10;
 FB3 : 8d;
 FB4 : 00;
 FB5 : 20;
 FB6 : 85;
 FB7 : 10;
 FB8 : a9;
 FB9 : 00;
 FBA : 85;
 FBB : 12;
 FBC : 8d;
 FBD : 05;
 FBE : 20;
 FBF : 85;
 FC0 : 13;
 FC1 : 8d;
 FC2 : 05;
 FC3 : 20;
 FC4 : 60;
 FC5 : a9;
 FC6 : 01;
 FC7 : 8d;
 FC8 : 16;
 FC9 : 40;
 FCA : a2;
 FCB : 00;
 FCC : a9;
 FCD : 00;
 FCE : 8d;
 FCF : 16;
 FD0 : 40;
 FD1 : 85;
 FD2 : 03;
 FD3 : 85;
 FD4 : 04;
 FD5 : 20;
 FD6 : d9;
 FD7 : 8f;
 FD8 : e8;
 FD9 : a0;
 FDA : 08;
 FDB : 85;
 FDC : 02;
 FDD : a9;
 FDE : 01;
 FDF : 8d;
 FE0 : 16;
 FE1 : 40;
 FE2 : a9;
 FE3 : 00;
 FE4 : 8d;
 FE5 : 16;
 FE6 : 40;
 FE7 : 48;
 FE8 : bd;
 FE9 : 16;
 FEA : 40;
 FEB : 85;
 FEC : 00;
 FED : 4a;
 FEE : 05;
 FEF : 00;
 FF0 : 4a;
 FF1 : 68;
 FF2 : 2a;
 FF3 : 88;
 FF4 : d0;
 FF5 : f1;
 FF6 : c5;
 FF7 : 02;
 FF8 : d0;
 FF9 : df;
 FFA : f6;
 FFB : 03;
 FFC : b4;
 FFD : 03;
 FFE : c0;
 FFF : 02;
1000 : 90;
1001 : d7;
1002 : 86;
1003 : 00;
1004 : 06;
1005 : 00;
1006 : a6;
1007 : 00;
1008 : b4;
1009 : 14;
100A : 84;
100B : 01;
100C : 46;
100D : 00;
100E : a4;
100F : 00;
1010 : 95;
1011 : 14;
1012 : 95;
1013 : 15;
1014 : ad;
1015 : 37;
1016 : 05;
1017 : d0;
1018 : 18;
1019 : b5;
101A : 15;
101B : 29;
101C : c0;
101D : 39;
101E : 6b;
101F : 03;
1020 : 99;
1021 : 6b;
1022 : 03;
1023 : b5;
1024 : 14;
1025 : 29;
1026 : ff;
1027 : 10;
1028 : 08;
1029 : 24;
102A : 01;
102B : 10;
102C : 04;
102D : 29;
102E : 7f;
102F : 95;
1030 : 15;
1031 : 60;
1032 : 22;
1033 : 2f;
1034 : 02;
1035 : fc;
1036 : fc;
1037 : 22;
1038 : 4f;
1039 : 02;
103A : 44;
103B : 49;
103C : 22;
103D : 6f;
103E : 02;
103F : 45;
1040 : 4a;
1041 : 22;
1042 : 8f;
1043 : 02;
1044 : 46;
1045 : 4b;
1046 : 22;
1047 : af;
1048 : 02;
1049 : 47;
104A : 4c;
104B : 22;
104C : ce;
104D : 04;
104E : 2a;
104F : 48;
1050 : 39;
1051 : 2a;
1052 : 00;
1053 : 22;
1054 : 2f;
1055 : 02;
1056 : fc;
1057 : fc;
1058 : 22;
1059 : 4f;
105A : 02;
105B : 99;
105C : 94;
105D : 22;
105E : 6f;
105F : 02;
1060 : 9a;
1061 : 95;
1062 : 22;
1063 : 8f;
1064 : 02;
1065 : 9b;
1066 : 96;
1067 : 22;
1068 : af;
1069 : 02;
106A : 9c;
106B : 97;
106C : 22;
106D : ce;
106E : 04;
106F : 2a;
1070 : 89;
1071 : 98;
1072 : 2a;
1073 : 00;
1074 : 22;
1075 : 4f;
1076 : 02;
1077 : 3a;
1078 : 3f;
1079 : 22;
107A : 6f;
107B : 02;
107C : 3b;
107D : 40;
107E : 22;
107F : 8f;
1080 : 02;
1081 : 3c;
1082 : 41;
1083 : 22;
1084 : af;
1085 : 02;
1086 : 3d;
1087 : 42;
1088 : 22;
1089 : ce;
108A : 04;
108B : 2a;
108C : 3e;
108D : 43;
108E : 2a;
108F : 00;
1090 : 22;
1091 : 4f;
1092 : 02;
1093 : 8f;
1094 : 8a;
1095 : 22;
1096 : 6f;
1097 : 02;
1098 : 90;
1099 : 8b;
109A : 22;
109B : 8f;
109C : 02;
109D : 91;
109E : 8c;
109F : 22;
10A0 : af;
10A1 : 02;
10A2 : 92;
10A3 : 8d;
10A4 : 22;
10A5 : ce;
10A6 : 04;
10A7 : 2a;
10A8 : 93;
10A9 : 8e;
10AA : 2a;
10AB : 00;
10AC : 22;
10AD : 2f;
10AE : 02;
10AF : fc;
10B0 : fc;
10B1 : 22;
10B2 : 4e;
10B3 : 04;
10B4 : fc;
10B5 : 30;
10B6 : 35;
10B7 : fc;
10B8 : 22;
10B9 : 6e;
10BA : 04;
10BB : fc;
10BC : 31;
10BD : 36;
10BE : fc;
10BF : 22;
10C0 : 8f;
10C1 : 02;
10C2 : 32;
10C3 : 37;
10C4 : 22;
10C5 : af;
10C6 : 02;
10C7 : 33;
10C8 : 38;
10C9 : 22;
10CA : ce;
10CB : 04;
10CC : 2a;
10CD : 34;
10CE : 39;
10CF : 2a;
10D0 : 00;
10D1 : 22;
10D2 : 2f;
10D3 : 02;
10D4 : fc;
10D5 : fc;
10D6 : 22;
10D7 : 4e;
10D8 : 04;
10D9 : fc;
10DA : 85;
10DB : 80;
10DC : fc;
10DD : 22;
10DE : 6e;
10DF : 04;
10E0 : fc;
10E1 : 86;
10E2 : 81;
10E3 : fc;
10E4 : 22;
10E5 : 8f;
10E6 : 02;
10E7 : 87;
10E8 : 82;
10E9 : 22;
10EA : af;
10EB : 02;
10EC : 88;
10ED : 83;
10EE : 22;
10EF : ce;
10F0 : 04;
10F1 : 2a;
10F2 : 89;
10F3 : 84;
10F4 : 2a;
10F5 : 00;
10F6 : 22;
10F7 : 4f;
10F8 : 02;
10F9 : 30;
10FA : 35;
10FB : 22;
10FC : 6d;
10FD : 06;
10FE : fc;
10FF : fc;
1100 : 31;
1101 : 36;
1102 : fc;
1103 : fc;
1104 : 22;
1105 : 8e;
1106 : 04;
1107 : fc;
1108 : 5e;
1109 : 37;
110A : fc;
110B : 22;
110C : af;
110D : 02;
110E : 73;
110F : 38;
1110 : 22;
1111 : cf;
1112 : 03;
1113 : 2a;
1114 : 39;
1115 : 2a;
1116 : 00;
1117 : 22;
1118 : 4f;
1119 : 02;
111A : 85;
111B : 80;
111C : 22;
111D : 6d;
111E : 06;
111F : fc;
1120 : fc;
1121 : 86;
1122 : 81;
1123 : fc;
1124 : fc;
1125 : 22;
1126 : 8e;
1127 : 04;
1128 : fc;
1129 : 87;
112A : ae;
112B : fc;
112C : 22;
112D : af;
112E : 02;
112F : 88;
1130 : c3;
1131 : 22;
1132 : ce;
1133 : 03;
1134 : 2a;
1135 : 89;
1136 : 2a;
1137 : 00;
1138 : 22;
1139 : 4f;
113A : 02;
113B : fc;
113C : 55;
113D : 22;
113E : 6d;
113F : 06;
1140 : 4e;
1141 : 4f;
1142 : 51;
1143 : 56;
1144 : fc;
1145 : fc;
1146 : 22;
1147 : 8e;
1148 : 04;
1149 : 50;
114A : 52;
114B : 57;
114C : fc;
114D : 22;
114E : af;
114F : 02;
1150 : 53;
1151 : fc;
1152 : 22;
1153 : cf;
1154 : 02;
1155 : 54;
1156 : 2a;
1157 : 00;
1158 : 22;
1159 : 4f;
115A : 02;
115B : a5;
115C : fc;
115D : 22;
115E : 6d;
115F : 06;
1160 : fc;
1161 : fc;
1162 : a6;
1163 : a1;
1164 : 9f;
1165 : 9e;
1166 : 22;
1167 : 8e;
1168 : 04;
1169 : fc;
116A : a7;
116B : a2;
116C : a0;
116D : 22;
116E : af;
116F : 02;
1170 : fc;
1171 : a3;
1172 : 22;
1173 : cf;
1174 : 02;
1175 : 2a;
1176 : a4;
1177 : 00;
1178 : 22;
1179 : 4f;
117A : 02;
117B : 59;
117C : 5c;
117D : 22;
117E : 6e;
117F : 04;
1180 : 58;
1181 : 5a;
1182 : 5d;
1183 : fc;
1184 : 22;
1185 : 8f;
1186 : 02;
1187 : 5b;
1188 : da;
1189 : 22;
118A : af;
118B : 02;
118C : 33;
118D : 38;
118E : 22;
118F : cf;
1190 : 02;
1191 : 34;
1192 : 39;
1193 : 00;
1194 : 22;
1195 : 4f;
1196 : 02;
1197 : ac;
1198 : a9;
1199 : 22;
119A : 6e;
119B : 04;
119C : fc;
119D : ad;
119E : aa;
119F : a8;
11A0 : 22;
11A1 : 8f;
11A2 : 02;
11A3 : db;
11A4 : ab;
11A5 : 22;
11A6 : af;
11A7 : 02;
11A8 : 88;
11A9 : 83;
11AA : 22;
11AB : cf;
11AC : 02;
11AD : 89;
11AE : 84;
11AF : 00;
11B0 : 22;
11B1 : 4f;
11B2 : 02;
11B3 : fc;
11B4 : fc;
11B5 : 22;
11B6 : 6f;
11B7 : 02;
11B8 : 30;
11B9 : 35;
11BA : 22;
11BB : 8e;
11BC : 04;
11BD : fc;
11BE : 31;
11BF : 36;
11C0 : fc;
11C1 : 22;
11C2 : ae;
11C3 : 04;
11C4 : fc;
11C5 : 5e;
11C6 : 37;
11C7 : fc;
11C8 : 22;
11C9 : cd;
11CA : 06;
11CB : 2a;
11CC : 2a;
11CD : 34;
11CE : 5f;
11CF : de;
11D0 : 2a;
11D1 : 00;
11D2 : 22;
11D3 : 4f;
11D4 : 02;
11D5 : fc;
11D6 : fc;
11D7 : 22;
11D8 : 6f;
11D9 : 02;
11DA : 85;
11DB : 80;
11DC : 22;
11DD : 8e;
11DE : 04;
11DF : fc;
11E0 : 86;
11E1 : 81;
11E2 : fc;
11E3 : 22;
11E4 : ae;
11E5 : 04;
11E6 : fc;
11E7 : 87;
11E8 : ae;
11E9 : fc;
11EA : 22;
11EB : cd;
11EC : 06;
11ED : 2a;
11EE : df;
11EF : af;
11F0 : 84;
11F1 : 2a;
11F2 : 2a;
11F3 : 00;
11F4 : 22;
11F5 : 6f;
11F6 : 02;
11F7 : 59;
11F8 : 5c;
11F9 : 22;
11FA : 8f;
11FB : 02;
11FC : 63;
11FD : 66;
11FE : 22;
11FF : ae;
1200 : 04;
1201 : 61;
1202 : 64;
1203 : 67;
1204 : fc;
1205 : 22;
1206 : cd;
1207 : 06;
1208 : 60;
1209 : 62;
120A : 65;
120B : f6;
120C : 2a;
120D : 2a;
120E : 00;
120F : 22;
1210 : 6f;
1211 : 02;
1212 : ac;
1213 : a9;
1214 : 22;
1215 : 8f;
1216 : 02;
1217 : b6;
1218 : b3;
1219 : 22;
121A : ae;
121B : 04;
121C : fc;
121D : b7;
121E : b4;
121F : b1;
1220 : 22;
1221 : cd;
1222 : 06;
1223 : 2a;
1224 : 2a;
1225 : f7;
1226 : b5;
1227 : b2;
1228 : b0;
1229 : 00;
122A : 22;
122B : 6f;
122C : 02;
122D : 59;
122E : 5c;
122F : 22;
1230 : 8f;
1231 : 02;
1232 : 63;
1233 : 66;
1234 : 22;
1235 : ae;
1236 : 04;
1237 : fc;
1238 : 64;
1239 : 67;
123A : fc;
123B : 22;
123C : cd;
123D : 06;
123E : 2a;
123F : 2a;
1240 : 34;
1241 : f6;
1242 : 2a;
1243 : 2a;
1244 : 00;
1245 : 22;
1246 : 6f;
1247 : 02;
1248 : ac;
1249 : a9;
124A : 22;
124B : 8f;
124C : 02;
124D : b6;
124E : b3;
124F : 22;
1250 : ae;
1251 : 04;
1252 : fc;
1253 : b7;
1254 : b4;
1255 : fc;
1256 : 22;
1257 : cd;
1258 : 06;
1259 : 2a;
125A : 2a;
125B : f7;
125C : 84;
125D : 2a;
125E : 2a;
125F : 00;
1260 : 22;
1261 : 6f;
1262 : 02;
1263 : 59;
1264 : 5c;
1265 : 22;
1266 : 8e;
1267 : 04;
1268 : 58;
1269 : 5a;
126A : 5d;
126B : fc;
126C : 22;
126D : af;
126E : 02;
126F : f4;
1270 : da;
1271 : 22;
1272 : ce;
1273 : 04;
1274 : 2a;
1275 : 34;
1276 : 5f;
1277 : de;
1278 : 00;
1279 : 22;
127A : 6f;
127B : 02;
127C : ac;
127D : a9;
127E : 22;
127F : 8e;
1280 : 04;
1281 : fc;
1282 : ad;
1283 : aa;
1284 : a8;
1285 : 22;
1286 : af;
1287 : 02;
1288 : db;
1289 : f5;
128A : 22;
128B : ce;
128C : 04;
128D : df;
128E : af;
128F : 84;
1290 : 2a;
1291 : 00;
1292 : 22;
1293 : 10;
1294 : 01;
1295 : fc;
1296 : 22;
1297 : 2f;
1298 : 02;
1299 : fc;
129A : 55;
129B : 22;
129C : 4f;
129D : 02;
129E : 71;
129F : 78;
12A0 : 22;
12A1 : 6f;
12A2 : 02;
12A3 : 72;
12A4 : 79;
12A5 : 22;
12A6 : 8f;
12A7 : 02;
12A8 : 73;
12A9 : 7a;
12AA : 22;
12AB : af;
12AC : 02;
12AD : fc;
12AE : 7b;
12AF : 22;
12B0 : ce;
12B1 : 04;
12B2 : 2a;
12B3 : 2a;
12B4 : d2;
12B5 : 2a;
12B6 : 00;
12B7 : 22;
12B8 : 0f;
12B9 : 01;
12BA : fc;
12BB : 22;
12BC : 2f;
12BD : 02;
12BE : a5;
12BF : fc;
12C0 : 22;
12C1 : 4f;
12C2 : 02;
12C3 : c8;
12C4 : c1;
12C5 : 22;
12C6 : 6f;
12C7 : 02;
12C8 : c9;
12C9 : c2;
12CA : 22;
12CB : 8f;
12CC : 02;
12CD : ca;
12CE : c3;
12CF : 22;
12D0 : af;
12D1 : 02;
12D2 : cb;
12D3 : fc;
12D4 : 22;
12D5 : ce;
12D6 : 04;
12D7 : 2a;
12D8 : d3;
12D9 : 2a;
12DA : 2a;
12DB : 00;
12DC : 22;
12DD : 10;
12DE : 01;
12DF : 6b;
12E0 : 22;
12E1 : 2f;
12E2 : 02;
12E3 : fc;
12E4 : 6c;
12E5 : 22;
12E6 : 4f;
12E7 : 02;
12E8 : 68;
12E9 : 6d;
12EA : 22;
12EB : 6f;
12EC : 02;
12ED : 69;
12EE : 6e;
12EF : 22;
12F0 : 8f;
12F1 : 02;
12F2 : 6a;
12F3 : 6f;
12F4 : 22;
12F5 : b0;
12F6 : 01;
12F7 : 70;
12F8 : 22;
12F9 : d0;
12FA : 01;
12FB : 2a;
12FC : 00;
12FD : 22;
12FE : 0f;
12FF : 01;
1300 : bb;
1301 : 22;
1302 : 2f;
1303 : 02;
1304 : bc;
1305 : fc;
1306 : 22;
1307 : 4f;
1308 : 02;
1309 : bd;
130A : b8;
130B : 22;
130C : 6f;
130D : 02;
130E : be;
130F : b9;
1310 : 22;
1311 : 8f;
1312 : 02;
1313 : bf;
1314 : ba;
1315 : 22;
1316 : af;
1317 : 01;
1318 : c0;
1319 : 22;
131A : cf;
131B : 01;
131C : 2a;
131D : 00;
131E : 21;
131F : f0;
1320 : 01;
1321 : fc;
1322 : 22;
1323 : 10;
1324 : 01;
1325 : 55;
1326 : 22;
1327 : 2f;
1328 : 02;
1329 : 71;
132A : 78;
132B : 22;
132C : 4f;
132D : 02;
132E : 72;
132F : 79;
1330 : 22;
1331 : 6f;
1332 : 02;
1333 : 73;
1334 : 7a;
1335 : 22;
1336 : 8f;
1337 : 02;
1338 : fc;
1339 : 7b;
133A : 22;
133B : b0;
133C : 01;
133D : 7c;
133E : 22;
133F : d0;
1340 : 01;
1341 : 2a;
1342 : 00;
1343 : 21;
1344 : ef;
1345 : 01;
1346 : fc;
1347 : 22;
1348 : 0f;
1349 : 01;
134A : a5;
134B : 22;
134C : 2f;
134D : 02;
134E : c8;
134F : c1;
1350 : 22;
1351 : 4f;
1352 : 02;
1353 : c9;
1354 : c2;
1355 : 22;
1356 : 6f;
1357 : 02;
1358 : ca;
1359 : c3;
135A : 22;
135B : 8f;
135C : 02;
135D : cb;
135E : fc;
135F : 22;
1360 : af;
1361 : 01;
1362 : cc;
1363 : 22;
1364 : cf;
1365 : 01;
1366 : 2a;
1367 : 00;
1368 : 21;
1369 : f0;
136A : 01;
136B : 6b;
136C : 22;
136D : 0f;
136E : 02;
136F : fc;
1370 : 6c;
1371 : 22;
1372 : 2f;
1373 : 02;
1374 : 68;
1375 : 6d;
1376 : 22;
1377 : 4f;
1378 : 02;
1379 : 69;
137A : 6e;
137B : 22;
137C : 6f;
137D : 02;
137E : 6a;
137F : 6f;
1380 : 22;
1381 : 90;
1382 : 01;
1383 : 70;
1384 : 22;
1385 : b0;
1386 : 01;
1387 : fc;
1388 : 00;
1389 : 21;
138A : ef;
138B : 01;
138C : bb;
138D : 22;
138E : 0f;
138F : 02;
1390 : bc;
1391 : fc;
1392 : 22;
1393 : 2f;
1394 : 02;
1395 : bd;
1396 : b8;
1397 : 22;
1398 : 4f;
1399 : 02;
139A : be;
139B : b9;
139C : 22;
139D : 6f;
139E : 02;
139F : bf;
13A0 : ba;
13A1 : 22;
13A2 : 8f;
13A3 : 01;
13A4 : c0;
13A5 : 22;
13A6 : af;
13A7 : 01;
13A8 : fc;
13A9 : 00;
13AA : 21;
13AB : cf;
13AC : 02;
13AD : fc;
13AE : fc;
13AF : 21;
13B0 : ee;
13B1 : 03;
13B2 : fc;
13B3 : fc;
13B4 : 55;
13B5 : 22;
13B6 : 0e;
13B7 : 03;
13B8 : fc;
13B9 : 71;
13BA : 78;
13BB : 22;
13BC : 2f;
13BD : 02;
13BE : 72;
13BF : 79;
13C0 : 22;
13C1 : 4f;
13C2 : 02;
13C3 : 73;
13C4 : 7a;
13C5 : 22;
13C6 : 6f;
13C7 : 02;
13C8 : fc;
13C9 : 7b;
13CA : 22;
13CB : 90;
13CC : 01;
13CD : 7c;
13CE : 00;
13CF : 21;
13D0 : cf;
13D1 : 02;
13D2 : fc;
13D3 : fc;
13D4 : 21;
13D5 : ef;
13D6 : 03;
13D7 : a5;
13D8 : fc;
13D9 : fc;
13DA : 22;
13DB : 0f;
13DC : 03;
13DD : c8;
13DE : c1;
13DF : fc;
13E0 : 22;
13E1 : 2f;
13E2 : 02;
13E3 : c9;
13E4 : c2;
13E5 : 22;
13E6 : 4f;
13E7 : 02;
13E8 : ca;
13E9 : c3;
13EA : 22;
13EB : 6f;
13EC : 02;
13ED : cb;
13EE : fc;
13EF : 22;
13F0 : 8f;
13F1 : 01;
13F2 : cc;
13F3 : 00;
13F4 : 21;
13F5 : cf;
13F6 : 02;
13F7 : fc;
13F8 : 6b;
13F9 : 21;
13FA : ef;
13FB : 02;
13FC : fc;
13FD : 6c;
13FE : 22;
13FF : 0f;
1400 : 02;
1401 : 68;
1402 : 6d;
1403 : 22;
1404 : 2f;
1405 : 02;
1406 : 69;
1407 : 6e;
1408 : 22;
1409 : 4f;
140A : 02;
140B : 6a;
140C : 6f;
140D : 22;
140E : 70;
140F : 01;
1410 : 70;
1411 : 22;
1412 : 90;
1413 : 01;
1414 : fc;
1415 : 00;
1416 : 21;
1417 : cf;
1418 : 02;
1419 : bb;
141A : fc;
141B : 21;
141C : ef;
141D : 02;
141E : bc;
141F : fc;
1420 : 22;
1421 : 0f;
1422 : 02;
1423 : bd;
1424 : b8;
1425 : 22;
1426 : 2f;
1427 : 02;
1428 : be;
1429 : b9;
142A : 22;
142B : 4f;
142C : 02;
142D : bf;
142E : ba;
142F : 22;
1430 : 6f;
1431 : 01;
1432 : c0;
1433 : 22;
1434 : 8f;
1435 : 01;
1436 : fc;
1437 : 00;
1438 : 21;
1439 : cf;
143A : 02;
143B : 30;
143C : 35;
143D : 21;
143E : ef;
143F : 02;
1440 : 31;
1441 : 36;
1442 : 22;
1443 : 0f;
1444 : 02;
1445 : 5e;
1446 : 37;
1447 : 22;
1448 : 2f;
1449 : 02;
144A : 73;
144B : 7a;
144C : 22;
144D : 4f;
144E : 02;
144F : fc;
1450 : 7b;
1451 : 22;
1452 : 70;
1453 : 01;
1454 : 7c;
1455 : 00;
1456 : 21;
1457 : cf;
1458 : 02;
1459 : 85;
145A : 80;
145B : 21;
145C : ef;
145D : 02;
145E : 86;
145F : 81;
1460 : 22;
1461 : 0f;
1462 : 02;
1463 : 87;
1464 : ae;
1465 : 22;
1466 : 2f;
1467 : 02;
1468 : ca;
1469 : c3;
146A : 22;
146B : 4f;
146C : 02;
146D : cb;
146E : fc;
146F : 22;
1470 : 6f;
1471 : 01;
1472 : cc;
1473 : 00;
1474 : 21;
1475 : cf;
1476 : 02;
1477 : fc;
1478 : 55;
1479 : 21;
147A : ee;
147B : 03;
147C : 74;
147D : 76;
147E : 78;
147F : 22;
1480 : 0e;
1481 : 03;
1482 : 75;
1483 : 77;
1484 : 79;
1485 : 22;
1486 : 2f;
1487 : 02;
1488 : fc;
1489 : 7a;
148A : 22;
148B : 4f;
148C : 02;
148D : fc;
148E : 7b;
148F : 22;
1490 : 70;
1491 : 01;
1492 : 7c;
1493 : 00;
1494 : 21;
1495 : cf;
1496 : 02;
1497 : a5;
1498 : fc;
1499 : 21;
149A : ef;
149B : 03;
149C : c8;
149D : c6;
149E : c4;
149F : 22;
14A0 : 0f;
14A1 : 03;
14A2 : c9;
14A3 : c7;
14A4 : c5;
14A5 : 22;
14A6 : 2f;
14A7 : 02;
14A8 : ca;
14A9 : fc;
14AA : 22;
14AB : 4f;
14AC : 02;
14AD : cb;
14AE : fc;
14AF : 22;
14B0 : 6f;
14B1 : 01;
14B2 : cc;
14B3 : 00;
14B4 : 21;
14B5 : cf;
14B6 : 02;
14B7 : 59;
14B8 : 5c;
14B9 : 21;
14BA : ee;
14BB : 03;
14BC : 58;
14BD : 5a;
14BE : 5d;
14BF : 22;
14C0 : 0f;
14C1 : 02;
14C2 : f4;
14C3 : da;
14C4 : 22;
14C5 : 2f;
14C6 : 02;
14C7 : 73;
14C8 : 7a;
14C9 : 22;
14CA : 4f;
14CB : 02;
14CC : fc;
14CD : 7b;
14CE : 22;
14CF : 70;
14D0 : 01;
14D1 : 7c;
14D2 : 00;
14D3 : 21;
14D4 : cf;
14D5 : 02;
14D6 : ac;
14D7 : a9;
14D8 : 21;
14D9 : ef;
14DA : 03;
14DB : ad;
14DC : aa;
14DD : a8;
14DE : 22;
14DF : 0f;
14E0 : 02;
14E1 : db;
14E2 : f5;
14E3 : 22;
14E4 : 2f;
14E5 : 02;
14E6 : ca;
14E7 : c3;
14E8 : 22;
14E9 : 4f;
14EA : 02;
14EB : cb;
14EC : fc;
14ED : 22;
14EE : 6f;
14EF : 01;
14F0 : cc;
14F1 : 00;
14F2 : 22;
14F3 : 2f;
14F4 : 02;
14F5 : fc;
14F6 : fc;
14F7 : 22;
14F8 : 4f;
14F9 : 02;
14FA : 7d;
14FB : fc;
14FC : 22;
14FD : 6d;
14FE : 06;
14FF : fc;
1500 : fc;
1501 : 7e;
1502 : 4a;
1503 : fc;
1504 : fc;
1505 : 22;
1506 : 8e;
1507 : 04;
1508 : fc;
1509 : 46;
150A : 4b;
150B : fc;
150C : 22;
150D : af;
150E : 02;
150F : 3d;
1510 : 42;
1511 : 22;
1512 : ce;
1513 : 04;
1514 : 2a;
1515 : 3e;
1516 : 43;
1517 : 2a;
1518 : 00;
1519 : 22;
151A : 2f;
151B : 02;
151C : fc;
151D : fc;
151E : 22;
151F : 4f;
1520 : 02;
1521 : fc;
1522 : cd;
1523 : 22;
1524 : 6d;
1525 : 06;
1526 : fc;
1527 : fc;
1528 : 9a;
1529 : ce;
152A : fc;
152B : fc;
152C : 22;
152D : 8e;
152E : 04;
152F : fc;
1530 : 9b;
1531 : 96;
1532 : fc;
1533 : 22;
1534 : af;
1535 : 02;
1536 : 92;
1537 : 8d;
1538 : 22;
1539 : ce;
153A : 04;
153B : 2a;
153C : 93;
153D : 8e;
153E : 2a;
153F : 00;
1540 : 22;
1541 : 2f;
1542 : 02;
1543 : fc;
1544 : fc;
1545 : 22;
1546 : 4f;
1547 : 02;
1548 : 3a;
1549 : 3f;
154A : 22;
154B : 6f;
154C : 02;
154D : 3b;
154E : 40;
154F : 22;
1550 : 8f;
1551 : 02;
1552 : 3c;
1553 : 41;
1554 : 22;
1555 : af;
1556 : 02;
1557 : 47;
1558 : 4c;
1559 : 22;
155A : cf;
155B : 02;
155C : 48;
155D : 39;
155E : 00;
155F : 22;
1560 : 2f;
1561 : 02;
1562 : fc;
1563 : fc;
1564 : 22;
1565 : 4f;
1566 : 02;
1567 : 8f;
1568 : 8a;
1569 : 22;
156A : 6f;
156B : 02;
156C : 90;
156D : 8b;
156E : 22;
156F : 8f;
1570 : 02;
1571 : 91;
1572 : 8c;
1573 : 22;
1574 : af;
1575 : 02;
1576 : 97;
1577 : 9c;
1578 : 22;
1579 : cf;
157A : 02;
157B : 98;
157C : 89;
157D : 00;
157E : 21;
157F : cf;
1580 : 42;
1581 : fc;
1582 : 21;
1583 : ed;
1584 : 46;
1585 : fc;
1586 : 22;
1587 : 0e;
1588 : 45;
1589 : fc;
158A : 22;
158B : 2f;
158C : 42;
158D : fc;
158E : 22;
158F : 4f;
1590 : 42;
1591 : fc;
1592 : 22;
1593 : 6d;
1594 : 46;
1595 : fc;
1596 : 22;
1597 : 8e;
1598 : 44;
1599 : fc;
159A : 22;
159B : ae;
159C : 44;
159D : fc;
159E : 22;
159F : cd;
15A0 : 46;
15A1 : 2a;
15A2 : 00;
15A3 : 23;
15A4 : c0;
15A5 : 48;
15A6 : aa;
15A7 : 23;
15A8 : c8;
15A9 : 48;
15AA : 00;
15AB : 23;
15AC : d0;
15AD : 48;
15AE : a0;
15AF : 23;
15B0 : d8;
15B1 : 48;
15B2 : 50;
15B3 : 23;
15B4 : e0;
15B5 : 50;
15B6 : 55;
15B7 : 23;
15B8 : f0;
15B9 : 50;
15BA : ff;
15BB : 20;
15BC : 40;
15BD : 60;
15BE : d8;
15BF : 20;
15C0 : 60;
15C1 : 20;
15C2 : 2d;
15C3 : 2e;
15C4 : 2d;
15C5 : 2e;
15C6 : 2d;
15C7 : 2e;
15C8 : 2d;
15C9 : 2e;
15CA : 2d;
15CB : 2e;
15CC : 2d;
15CD : 2e;
15CE : 2d;
15CF : 2e;
15D0 : 2d;
15D1 : 2e;
15D2 : 2d;
15D3 : 2e;
15D4 : 2d;
15D5 : 2e;
15D6 : 2d;
15D7 : 2e;
15D8 : 2d;
15D9 : 2e;
15DA : 2d;
15DB : 2e;
15DC : 2d;
15DD : 2e;
15DE : 2d;
15DF : 2e;
15E0 : 2d;
15E1 : 2e;
15E2 : 21;
15E3 : 40;
15E4 : 60;
15E5 : d8;
15E6 : 21;
15E7 : 60;
15E8 : 20;
15E9 : 2d;
15EA : 2e;
15EB : 2d;
15EC : 2e;
15ED : 2d;
15EE : 2e;
15EF : 2d;
15F0 : 2e;
15F1 : 2d;
15F2 : 2e;
15F3 : 2d;
15F4 : 2e;
15F5 : 2d;
15F6 : 2e;
15F7 : 2d;
15F8 : 2e;
15F9 : 2d;
15FA : 2e;
15FB : 2d;
15FC : 2e;
15FD : 2d;
15FE : 2e;
15FF : 2d;
1600 : 2e;
1601 : 2d;
1602 : 2e;
1603 : 2d;
1604 : 2e;
1605 : 2d;
1606 : 2e;
1607 : 2d;
1608 : 2e;
1609 : 20;
160A : a3;
160B : 1a;
160C : 2f;
160D : fd;
160E : 2f;
160F : fd;
1610 : 2f;
1611 : fd;
1612 : 2f;
1613 : fd;
1614 : 2f;
1615 : fd;
1616 : fd;
1617 : 23;
1618 : fc;
1619 : 20;
161A : fd;
161B : fd;
161C : fc;
161D : fc;
161E : 2f;
161F : fd;
1620 : fd;
1621 : fd;
1622 : 2f;
1623 : fd;
1624 : 2f;
1625 : fd;
1626 : 20;
1627 : c3;
1628 : 1a;
1629 : ff;
162A : fd;
162B : fd;
162C : 21;
162D : ff;
162E : fd;
162F : ff;
1630 : fd;
1631 : ff;
1632 : fd;
1633 : ff;
1634 : fd;
1635 : 2f;
1636 : fd;
1637 : ff;
1638 : d7;
1639 : fc;
163A : fc;
163B : ff;
163C : fd;
163D : ff;
163E : d7;
163F : ff;
1640 : fd;
1641 : ff;
1642 : fd;
1643 : 20;
1644 : e3;
1645 : 1a;
1646 : ff;
1647 : fd;
1648 : fd;
1649 : 23;
164A : ff;
164B : fd;
164C : ff;
164D : fd;
164E : ff;
164F : fd;
1650 : ff;
1651 : fd;
1652 : ff;
1653 : fd;
1654 : 2f;
1655 : fd;
1656 : fc;
1657 : fc;
1658 : ff;
1659 : fd;
165A : fd;
165B : fd;
165C : ff;
165D : fd;
165E : ff;
165F : fd;
1660 : 21;
1661 : 03;
1662 : 1a;
1663 : ff;
1664 : fd;
1665 : ff;
1666 : fd;
1667 : ff;
1668 : fd;
1669 : fd;
166A : 21;
166B : ff;
166C : fd;
166D : ff;
166E : fd;
166F : ff;
1670 : fd;
1671 : fd;
1672 : fd;
1673 : fc;
1674 : fc;
1675 : ff;
1676 : fd;
1677 : ff;
1678 : d7;
1679 : ff;
167A : fd;
167B : fd;
167C : 21;
167D : 21;
167E : 23;
167F : 19;
1680 : ff;
1681 : d7;
1682 : ff;
1683 : d7;
1684 : ff;
1685 : ff;
1686 : d7;
1687 : fc;
1688 : ff;
1689 : d7;
168A : ff;
168B : d7;
168C : ff;
168D : ff;
168E : ff;
168F : d7;
1690 : fc;
1691 : fc;
1692 : ff;
1693 : d7;
1694 : fc;
1695 : fc;
1696 : ff;
1697 : ff;
1698 : d7;
1699 : 21;
169A : e9;
169B : 0f;
169C : 01;
169D : fc;
169E : 19;
169F : 15;
16A0 : 0a;
16A1 : 22;
16A2 : 0e;
16A3 : 1b;
16A4 : fc;
16A5 : 10;
16A6 : 0a;
16A7 : 16;
16A8 : 0e;
16A9 : fc;
16AA : 0a;
16AB : 22;
16AC : 29;
16AD : 0f;
16AE : 01;
16AF : fc;
16B0 : 19;
16B1 : 15;
16B2 : 0a;
16B3 : 22;
16B4 : 0e;
16B5 : 1b;
16B6 : fc;
16B7 : 10;
16B8 : 0a;
16B9 : 16;
16BA : 0e;
16BB : fc;
16BC : fa;
16BD : 22;
16BE : 69;
16BF : 0f;
16C0 : 02;
16C1 : fc;
16C2 : 19;
16C3 : 15;
16C4 : 0a;
16C5 : 22;
16C6 : 0e;
16C7 : 1b;
16C8 : fc;
16C9 : 10;
16CA : 0a;
16CB : 16;
16CC : 0e;
16CD : fc;
16CE : 0a;
16CF : 22;
16D0 : a9;
16D1 : 0f;
16D2 : 02;
16D3 : fc;
16D4 : 19;
16D5 : 15;
16D6 : 0a;
16D7 : 22;
16D8 : 0e;
16D9 : 1b;
16DA : fc;
16DB : 10;
16DC : 0a;
16DD : 16;
16DE : 0e;
16DF : fc;
16E0 : fa;
16E1 : 23;
16E2 : 0a;
16E3 : 0e;
16E4 : 12;
16E5 : 1b;
16E6 : 0e;
16E7 : 16;
16E8 : fc;
16E9 : 0c;
16EA : 18;
16EB : 1b;
16EC : 19;
16ED : 13;
16EE : 01;
16EF : 09;
16F0 : 08;
16F1 : 04;
16F2 : 23;
16F3 : 4a;
16F4 : 0d;
16F5 : 01;
16F6 : 09;
16F7 : 08;
16F8 : 05;
16F9 : fc;
16FA : 17;
16FB : 12;
16FC : 17;
16FD : 1d;
16FE : 0e;
16FF : 17;
1700 : 0d;
1701 : 18;
1702 : 00;
1703 : 23;
1704 : c2;
1705 : 04;
1706 : 40;
1707 : 50;
1708 : 50;
1709 : 10;
170A : 23;
170B : c8;
170C : 08;
170D : f5;
170E : f5;
170F : f5;
1710 : 7d;
1711 : 2f;
1712 : 8f;
1713 : a5;
1714 : a5;
1715 : 23;
1716 : d0;
1717 : 48;
1718 : 50;
1719 : 23;
171A : d8;
171B : 48;
171C : f5;
171D : 23;
171E : e0;
171F : 50;
1720 : ff;
1721 : 23;
1722 : f0;
1723 : 48;
1724 : 05;
1725 : 27;
1726 : c0;
1727 : 50;
1728 : aa;
1729 : 27;
172A : d0;
172B : 48;
172C : 50;
172D : 27;
172E : d8;
172F : 48;
1730 : f5;
1731 : 27;
1732 : e0;
1733 : 50;
1734 : ff;
1735 : 27;
1736 : f0;
1737 : 48;
1738 : 05;
1739 : 20;
173A : 00;
173B : 7f;
173C : ff;
173D : 20;
173E : 3f;
173F : 7f;
1740 : ff;
1741 : 20;
1742 : 7e;
1743 : 7f;
1744 : ff;
1745 : 20;
1746 : bd;
1747 : 7f;
1748 : ff;
1749 : 20;
174A : fc;
174B : 64;
174C : ff;
174D : 24;
174E : c0;
174F : 7f;
1750 : ff;
1751 : 24;
1752 : ff;
1753 : 61;
1754 : ff;
1755 : 20;
1756 : 62;
1757 : 02;
1758 : 01;
1759 : 14;
175A : 20;
175B : 6b;
175C : 04;
175D : 1d;
175E : 18;
175F : 19;
1760 : 14;
1761 : 20;
1762 : 76;
1763 : 02;
1764 : 02;
1765 : 14;
1766 : 20;
1767 : a2;
1768 : 06;
1769 : 19;
176A : 15;
176B : 0a;
176C : 22;
176D : 0e;
176E : 1b;
176F : 20;
1770 : e3;
1771 : 05;
1772 : 0e;
1773 : 17;
1774 : 0e;
1775 : 16;
1776 : 22;
1777 : 20;
1778 : a8;
1779 : 46;
177A : fd;
177B : 20;
177C : e8;
177D : 46;
177E : fd;
177F : 20;
1780 : af;
1781 : 09;
1782 : fc;
1783 : 14;
1784 : fc;
1785 : 14;
1786 : fc;
1787 : 14;
1788 : fc;
1789 : 14;
178A : fc;
178B : 20;
178C : ba;
178D : 04;
178E : 1d;
178F : 12;
1790 : 16;
1791 : 0e;
1792 : 20;
1793 : da;
1794 : 04;
1795 : 02;
1796 : 00;
1797 : 00;
1798 : 00;
1799 : 20;
179A : fb;
179B : 03;
179C : 14;
179D : fc;
179E : 14;
179F : 20;
17A0 : ef;
17A1 : 02;
17A2 : d6;
17A3 : 14;
17A4 : 20;
17A5 : f6;
17A6 : 01;
17A7 : 14;
17A8 : 21;
17A9 : 20;
17AA : 60;
17AB : 26;
17AC : 25;
17AD : 20;
17AE : 60;
17AF : 26;
17B0 : 21;
17B1 : 40;
17B2 : 60;
17B3 : 27;
17B4 : 21;
17B5 : a0;
17B6 : 60;
17B7 : 29;
17B8 : 25;
17B9 : 40;
17BA : 60;
17BB : 27;
17BC : 25;
17BD : a0;
17BE : 60;
17BF : 29;
17C0 : 00;
17C1 : 23;
17C2 : f0;
17C3 : 50;
17C4 : 55;
17C5 : 27;
17C6 : f0;
17C7 : 50;
17C8 : 55;
17C9 : 23;
17CA : 40;
17CB : 60;
17CC : f0;
17CD : 23;
17CE : 60;
17CF : 60;
17D0 : f1;
17D1 : 23;
17D2 : 80;
17D3 : 60;
17D4 : fc;
17D5 : 23;
17D6 : a0;
17D7 : 60;
17D8 : fc;
17D9 : 23;
17DA : 41;
17DB : 02;
17DC : f2;
17DD : 24;
17DE : 23;
17DF : 61;
17E0 : 02;
17E1 : f3;
17E2 : 9d;
17E3 : 23;
17E4 : 49;
17E5 : 02;
17E6 : f2;
17E7 : 24;
17E8 : 23;
17E9 : 69;
17EA : 02;
17EB : f3;
17EC : 9d;
17ED : 23;
17EE : 51;
17EF : 02;
17F0 : f2;
17F1 : 24;
17F2 : 23;
17F3 : 71;
17F4 : 02;
17F5 : f3;
17F6 : 9d;
17F7 : 23;
17F8 : 59;
17F9 : 02;
17FA : f2;
17FB : 24;
17FC : 23;
17FD : 79;
17FE : 02;
17FF : f3;
1800 : 9d;
1801 : 27;
1802 : 40;
1803 : 60;
1804 : f0;
1805 : 27;
1806 : 60;
1807 : 60;
1808 : f1;
1809 : 27;
180A : 80;
180B : 60;
180C : fc;
180D : 27;
180E : a0;
180F : 60;
1810 : fc;
1811 : 27;
1812 : 41;
1813 : 02;
1814 : f2;
1815 : 24;
1816 : 27;
1817 : 61;
1818 : 02;
1819 : f3;
181A : 9d;
181B : 27;
181C : 49;
181D : 02;
181E : f2;
181F : 24;
1820 : 27;
1821 : 69;
1822 : 02;
1823 : f3;
1824 : 9d;
1825 : 27;
1826 : 51;
1827 : 02;
1828 : f2;
1829 : 24;
182A : 27;
182B : 71;
182C : 02;
182D : f3;
182E : 9d;
182F : 27;
1830 : 59;
1831 : 02;
1832 : f2;
1833 : 24;
1834 : 27;
1835 : 79;
1836 : 02;
1837 : f3;
1838 : 9d;
1839 : 21;
183A : 64;
183B : 03;
183C : 2d;
183D : 28;
183E : 2e;
183F : 21;
1840 : 85;
1841 : 01;
1842 : 28;
1843 : 21;
1844 : 6c;
1845 : 03;
1846 : 2d;
1847 : 28;
1848 : 2e;
1849 : 21;
184A : 8d;
184B : 01;
184C : 28;
184D : 21;
184E : 74;
184F : 03;
1850 : 2d;
1851 : 28;
1852 : 2e;
1853 : 21;
1854 : 95;
1855 : 01;
1856 : 28;
1857 : 21;
1858 : 7c;
1859 : 03;
185A : 2d;
185B : 28;
185C : 2e;
185D : 21;
185E : 9d;
185F : 01;
1860 : 28;
1861 : 25;
1862 : 64;
1863 : 03;
1864 : 2d;
1865 : 28;
1866 : 2e;
1867 : 25;
1868 : 85;
1869 : 01;
186A : 28;
186B : 25;
186C : 6c;
186D : 03;
186E : 2d;
186F : 28;
1870 : 2e;
1871 : 25;
1872 : 8d;
1873 : 01;
1874 : 28;
1875 : 25;
1876 : 74;
1877 : 03;
1878 : 2d;
1879 : 28;
187A : 2e;
187B : 25;
187C : 95;
187D : 01;
187E : 28;
187F : 25;
1880 : 7c;
1881 : 03;
1882 : 2d;
1883 : 28;
1884 : 2e;
1885 : 25;
1886 : 9d;
1887 : 01;
1888 : 28;
1889 : 21;
188A : 60;
188B : 03;
188C : ec;
188D : e0;
188E : ee;
188F : 21;
1890 : 80;
1891 : 03;
1892 : ed;
1893 : e1;
1894 : ef;
1895 : 25;
1896 : 60;
1897 : 03;
1898 : ec;
1899 : e2;
189A : ee;
189B : 25;
189C : 80;
189D : 03;
189E : ed;
189F : e3;
18A0 : ef;
18A1 : 00;
18A2 : 21;
18A3 : 61;
18A4 : 03;
18A5 : 2d;
18A6 : 28;
18A7 : 2e;
18A8 : 21;
18A9 : 82;
18AA : 01;
18AB : 28;
18AC : 21;
18AD : 69;
18AE : 03;
18AF : 2d;
18B0 : 28;
18B1 : 2e;
18B2 : 21;
18B3 : 8a;
18B4 : 01;
18B5 : 28;
18B6 : 21;
18B7 : 71;
18B8 : 03;
18B9 : 2d;
18BA : 28;
18BB : 2e;
18BC : 21;
18BD : 92;
18BE : 01;
18BF : 28;
18C0 : 21;
18C1 : 79;
18C2 : 03;
18C3 : 2d;
18C4 : 28;
18C5 : 2e;
18C6 : 21;
18C7 : 9a;
18C8 : 01;
18C9 : 28;
18CA : 25;
18CB : 61;
18CC : 03;
18CD : 2d;
18CE : 28;
18CF : 2e;
18D0 : 25;
18D1 : 82;
18D2 : 01;
18D3 : 28;
18D4 : 25;
18D5 : 69;
18D6 : 03;
18D7 : 2d;
18D8 : 28;
18D9 : 2e;
18DA : 25;
18DB : 8a;
18DC : 01;
18DD : 28;
18DE : 25;
18DF : 71;
18E0 : 03;
18E1 : 2d;
18E2 : 28;
18E3 : 2e;
18E4 : 25;
18E5 : 92;
18E6 : 01;
18E7 : 28;
18E8 : 25;
18E9 : 79;
18EA : 03;
18EB : 2d;
18EC : 28;
18ED : 2e;
18EE : 25;
18EF : 9a;
18F0 : 01;
18F1 : 28;
18F2 : 21;
18F3 : 7d;
18F4 : 03;
18F5 : ec;
18F6 : e0;
18F7 : ee;
18F8 : 21;
18F9 : 9d;
18FA : 03;
18FB : ed;
18FC : e1;
18FD : ef;
18FE : 25;
18FF : 7d;
1900 : 03;
1901 : ec;
1902 : e2;
1903 : ee;
1904 : 25;
1905 : 9d;
1906 : 03;
1907 : ed;
1908 : e3;
1909 : ef;
190A : 00;
190B : 21;
190C : c1;
190D : 03;
190E : f9;
190F : 2a;
1910 : 2a;
1911 : 21;
1912 : e2;
1913 : 03;
1914 : f9;
1915 : 2a;
1916 : 2a;
1917 : 22;
1918 : 03;
1919 : 03;
191A : f9;
191B : 2a;
191C : 2a;
191D : 22;
191E : 24;
191F : 03;
1920 : f9;
1921 : 2a;
1922 : 2a;
1923 : 22;
1924 : 45;
1925 : 03;
1926 : f9;
1927 : 2a;
1928 : 2a;
1929 : 22;
192A : 66;
192B : 03;
192C : f9;
192D : 2a;
192E : 2a;
192F : 22;
1930 : 87;
1931 : 03;
1932 : f9;
1933 : 2a;
1934 : 2a;
1935 : 22;
1936 : a8;
1937 : 03;
1938 : f9;
1939 : 2a;
193A : 2a;
193B : 22;
193C : c9;
193D : 01;
193E : f9;
193F : 00;
1940 : 21;
1941 : dc;
1942 : 03;
1943 : 2a;
1944 : 2a;
1945 : fb;
1946 : 21;
1947 : fb;
1948 : 03;
1949 : 2a;
194A : 2a;
194B : fb;
194C : 22;
194D : 1a;
194E : 03;
194F : 2a;
1950 : 2a;
1951 : fb;
1952 : 22;
1953 : 39;
1954 : 03;
1955 : 2a;
1956 : 2a;
1957 : fb;
1958 : 22;
1959 : 58;
195A : 03;
195B : 2a;
195C : 2a;
195D : fb;
195E : 22;
195F : 77;
1960 : 03;
1961 : 2a;
1962 : 2a;
1963 : fb;
1964 : 22;
1965 : 96;
1966 : 03;
1967 : 2a;
1968 : 2a;
1969 : fb;
196A : 22;
196B : b5;
196C : 03;
196D : 2a;
196E : 2a;
196F : fb;
1970 : 22;
1971 : d6;
1972 : 01;
1973 : fb;
1974 : 00;
1975 : 22;
1976 : c0;
1977 : 60;
1978 : 2a;
1979 : 22;
197A : e0;
197B : 60;
197C : 2b;
197D : 23;
197E : 00;
197F : 60;
1980 : d1;
1981 : 23;
1982 : 20;
1983 : 20;
1984 : 2d;
1985 : 2e;
1986 : 2d;
1987 : 2e;
1988 : 2d;
1989 : 2e;
198A : 2d;
198B : 2e;
198C : 2d;
198D : 2e;
198E : 2d;
198F : 2e;
1990 : 2d;
1991 : 2e;
1992 : 2d;
1993 : 2e;
1994 : 2d;
1995 : 2e;
1996 : 2d;
1997 : 2e;
1998 : 2d;
1999 : 2e;
199A : 2d;
199B : 2e;
199C : 2d;
199D : 2e;
199E : 2d;
199F : 2e;
19A0 : 2d;
19A1 : 2e;
19A2 : 2d;
19A3 : 2e;
19A4 : 26;
19A5 : c0;
19A6 : 60;
19A7 : 2a;
19A8 : 26;
19A9 : e0;
19AA : 60;
19AB : 2b;
19AC : 27;
19AD : 00;
19AE : 60;
19AF : d1;
19B0 : 27;
19B1 : 20;
19B2 : 20;
19B3 : 2d;
19B4 : 2e;
19B5 : 2d;
19B6 : 2e;
19B7 : 2d;
19B8 : 2e;
19B9 : 2d;
19BA : 2e;
19BB : 2d;
19BC : 2e;
19BD : 2d;
19BE : 2e;
19BF : 2d;
19C0 : 2e;
19C1 : 2d;
19C2 : 2e;
19C3 : 2d;
19C4 : 2e;
19C5 : 2d;
19C6 : 2e;
19C7 : 2d;
19C8 : 2e;
19C9 : 2d;
19CA : 2e;
19CB : 2d;
19CC : 2e;
19CD : 2d;
19CE : 2e;
19CF : 2d;
19D0 : 2e;
19D1 : 2d;
19D2 : 2e;
19D3 : 23;
19D4 : 40;
19D5 : 60;
19D6 : 4d;
19D7 : 23;
19D8 : 60;
19D9 : 60;
19DA : 25;
19DB : 23;
19DC : 80;
19DD : 60;
19DE : 26;
19DF : 23;
19E0 : a0;
19E1 : 60;
19E2 : ff;
19E3 : 27;
19E4 : 40;
19E5 : 60;
19E6 : 4d;
19E7 : 27;
19E8 : 60;
19E9 : 60;
19EA : 25;
19EB : 27;
19EC : 80;
19ED : 60;
19EE : 26;
19EF : 27;
19F0 : a0;
19F1 : 60;
19F2 : ff;
19F3 : 00;
19F4 : 23;
19F5 : c0;
19F6 : 60;
19F7 : aa;
19F8 : 23;
19F9 : e0;
19FA : 50;
19FB : ff;
19FC : 23;
19FD : f0;
19FE : 48;
19FF : 05;
1A00 : 27;
1A01 : e0;
1A02 : 50;
1A03 : ff;
1A04 : 27;
1A05 : f0;
1A06 : 48;
1A07 : 05;
1A08 : 21;
1A09 : fe;
1A0A : 42;
1A0B : ff;
1A0C : 21;
1A0D : ce;
1A0E : 42;
1A0F : ff;
1A10 : 20;
1A11 : c6;
1A12 : 15;
1A13 : 1c;
1A14 : 0a;
1A15 : 1f;
1A16 : 0e;
1A17 : fc;
1A18 : 1c;
1A19 : 22;
1A1A : 15;
1A1B : 1f;
1A1C : 12;
1A1D : 0a;
1A1E : fc;
1A1F : 0f;
1A20 : 1b;
1A21 : 18;
1A22 : 16;
1A23 : fc;
1A24 : 16;
1A25 : 1b;
1A26 : 13;
1A27 : f8;
1A28 : 21;
1A29 : 85;
1A2A : 07;
1A2B : 11;
1A2C : 0e;
1A2D : 15;
1A2E : 19;
1A2F : fc;
1A30 : 16;
1A31 : 0e;
1A32 : 21;
1A33 : c5;
1A34 : 06;
1A35 : 1d;
1A36 : 11;
1A37 : 18;
1A38 : 16;
1A39 : 0a;
1A3A : 1c;
1A3B : 00;
1A3C : 21;
1A3D : d3;
1A3E : 06;
1A3F : 1c;
1A40 : 22;
1A41 : 15;
1A42 : 1f;
1A43 : 12;
1A44 : 0a;
1A45 : 00;
1A46 : 21;
1A47 : 85;
1A48 : 47;
1A49 : fc;
1A4A : 21;
1A4B : c5;
1A4C : 46;
1A4D : fc;
1A4E : 00;
1A4F : 23;
1A50 : d0;
1A51 : 50;
1A52 : aa;
1A53 : 21;
1A54 : 48;
1A55 : 0f;
1A56 : 0c;
1A57 : 18;
1A58 : 17;
1A59 : 10;
1A5A : 1b;
1A5B : 0a;
1A5C : 1d;
1A5D : 1e;
1A5E : 15;
1A5F : 0a;
1A60 : 1d;
1A61 : 12;
1A62 : 18;
1A63 : 17;
1A64 : 1c;
1A65 : 21;
1A66 : 87;
1A67 : 11;
1A68 : 1d;
1A69 : 11;
1A6A : 18;
1A6B : 16;
1A6C : 0a;
1A6D : 1c;
1A6E : ff;
1A6F : 0a;
1A70 : 17;
1A71 : 0d;
1A72 : ff;
1A73 : 1c;
1A74 : 22;
1A75 : 15;
1A76 : 1f;
1A77 : 12;
1A78 : 0a;
1A79 : 22;
1A7A : 4f;
1A7B : 02;
1A7C : 3a;
1A7D : 3f;
1A7E : 22;
1A7F : 6f;
1A80 : 02;
1A81 : 3b;
1A82 : 40;
1A83 : 22;
1A84 : 8f;
1A85 : 02;
1A86 : 3c;
1A87 : 41;
1A88 : 22;
1A89 : af;
1A8A : 02;
1A8B : 3d;
1A8C : 42;
1A8D : 22;
1A8E : cf;
1A8F : 02;
1A90 : 7f;
1A91 : cf;
1A92 : 00;
1A93 : 21;
1A94 : 47;
1A95 : 13;
1A96 : fa;
1A97 : 1e;
1A98 : 1d;
1A99 : ff;
1A9A : 1d;
1A9B : 11;
1A9C : 0e;
1A9D : 12;
1A9E : 1b;
1A9F : ff;
1AA0 : 11;
1AA1 : 0a;
1AA2 : 19;
1AA3 : 19;
1AA4 : 12;
1AA5 : 17;
1AA6 : 0e;
1AA7 : 1c;
1AA8 : 1c;
1AA9 : 21;
1AAA : 85;
1AAB : 17;
1AAC : 0d;
1AAD : 18;
1AAE : 0e;
1AAF : 1c;
1AB0 : ff;
1AB1 : 17;
1AB2 : 18;
1AB3 : 1d;
1AB4 : ff;
1AB5 : 0c;
1AB6 : 18;
1AB7 : 17;
1AB8 : 1d;
1AB9 : 12;
1ABA : 17;
1ABB : 1e;
1ABC : 0e;
1ABD : ff;
1ABE : 15;
1ABF : 18;
1AC0 : 17;
1AC1 : 10;
1AC2 : 13;
1AC3 : 00;
1AC4 : 22;
1AC5 : 0b;
1AC6 : 4b;
1AC7 : ff;
1AC8 : 22;
1AC9 : 2b;
1ACA : 0b;
1ACB : ff;
1ACC : 1d;
1ACD : 12;
1ACE : 16;
1ACF : 0e;
1AD0 : ff;
1AD1 : 18;
1AD2 : 1f;
1AD3 : 0e;
1AD4 : 1b;
1AD5 : ff;
1AD6 : 22;
1AD7 : 4b;
1AD8 : 4b;
1AD9 : ff;
1ADA : 00;
1ADB : 21;
1ADC : e7;
1ADD : 12;
1ADE : ff;
1ADF : fc;
1AE0 : 14;
1AE1 : 19;
1AE2 : 15;
1AE3 : 0a;
1AE4 : 22;
1AE5 : 0e;
1AE6 : 1b;
1AE7 : ff;
1AE8 : fc;
1AE9 : 14;
1AEA : 0f;
1AEB : 15;
1AEC : 18;
1AED : 18;
1AEE : 1b;
1AEF : ff;
1AF0 : 00;
1AF1 : 22;
1AF2 : 0c;
1AF3 : 07;
1AF4 : ff;
1AF5 : 1b;
1AF6 : 0e;
1AF7 : 0a;
1AF8 : 0d;
1AF9 : 22;
1AFA : ff;
1AFB : 00;
1AFC : 21;
1AFD : e4;
1AFE : 58;
1AFF : fc;
1B00 : 22;
1B01 : 04;
1B02 : 58;
1B03 : fc;
1B04 : 00;
1B05 : ff;
1B06 : ff;
1B07 : ff;
1B08 : ff;
1B09 : 0f;
1B0A : 9b;
1B0B : 19;
1B0C : 9b;
1B0D : 1f;
1B0E : 9b;
1B0F : 25;
1B10 : 9b;
1B11 : 3b;
1B12 : 9b;
1B13 : 41;
1B14 : 9b;
1B15 : 41;
1B16 : 9b;
1B17 : 59;
1B18 : 9b;
1B19 : 2f;
1B1A : 9b;
1B1B : 35;
1B1C : 9b;
1B1D : 4d;
1B1E : 9b;
1B1F : 29;
1B20 : 9b;
1B21 : 3b;
1B22 : 9b;
1B23 : 4f;
1B24 : 9b;
1B25 : 25;
1B26 : 26;
1B27 : 27;
1B28 : 28;
1B29 : 29;
1B2A : 2a;
1B2B : 2f;
1B2C : 30;
1B2D : 29;
1B2E : 2a;
1B2F : 2b;
1B30 : 2c;
1B31 : 2d;
1B32 : 2e;
1B33 : 2b;
1B34 : 2c;
1B35 : 35;
1B36 : 36;
1B37 : 33;
1B38 : 34;
1B39 : 35;
1B3A : 36;
1B3B : 31;
1B3C : 32;
1B3D : 37;
1B3E : 38;
1B3F : 31;
1B40 : 32;
1B41 : 39;
1B42 : 3a;
1B43 : 3d;
1B44 : 3e;
1B45 : 3f;
1B46 : 40;
1B47 : 41;
1B48 : 42;
1B49 : 45;
1B4A : 46;
1B4B : 43;
1B4C : 44;
1B4D : 41;
1B4E : 42;
1B4F : 3f;
1B50 : 40;
1B51 : 3d;
1B52 : 3e;
1B53 : 39;
1B54 : 3a;
1B55 : 47;
1B56 : 48;
1B57 : 49;
1B58 : 4a;
1B59 : 4b;
1B5A : 4c;
1B5B : 4d;
1B5C : 4e;
1B5D : 01;
1B5E : 02;
1B5F : 04;
1B60 : 08;
1B61 : 6d;
1B62 : a8;
1B63 : 6d;
1B64 : a8;
1B65 : a9;
1B66 : a8;
1B67 : a9;
1B68 : a8;
1B69 : dc;
1B6A : a8;
1B6B : 02;
1B6C : 00;
1B6D : 03;
1B6E : 00;
1B6F : 06;
1B70 : 00;
1B71 : 00;
1B72 : 00;
1B73 : 40;
1B74 : 00;
1B75 : 05;
1B76 : 00;
1B77 : 00;
1B78 : c0;
1B79 : 00;
1B7A : 00;
1B7B : 70;
1B7C : 90;
1B7D : 00;
1B7E : 01;
1B7F : ff;
1B80 : 02;
1B81 : fe;
1B82 : 01;
1B83 : 02;
1B84 : 02;
1B85 : 03;
1B86 : 03;
1B87 : 0c;
1B88 : 03;
1B89 : 02;
1B8A : 02;
1B8B : 02;
1B8C : 02;
1B8D : 01;
1B8E : 05;
1B8F : 0c;
1B90 : 07;
1B91 : 02;
1B92 : 00;
1B93 : 05;
1B94 : 05;
1B95 : 04;
1B96 : 04;
1B97 : 03;
1B98 : 07;
1B99 : 06;
1B9A : 06;
1B9B : 05;
1B9C : 87;
1B9D : 84;
1B9E : 7c;
1B9F : 78;
1BA0 : 74;
1BA1 : 6c;
1BA2 : 70;
1BA3 : 74;
1BA4 : 78;
1BA5 : 7c;
1BA6 : 84;
1BA7 : 08;
1BA8 : 08;
1BA9 : 08;
1BAA : 0a;
1BAB : 0d;
1BAC : 12;
1BAD : 0d;
1BAE : fe;
1BAF : ad;
1BB0 : ea;
1BB1 : ad;
1BB2 : eb;
1BB3 : bd;
1BB4 : a0;
1BB5 : cf;
1BB6 : 3c;
1BB7 : d0;
1BB8 : e6;
1BB9 : d0;
1BBA : 18;
1BBB : d1;
1BBC : f8;
1BBD : d2;
1BBE : 3f;
1BBF : d2;
1BC0 : 29;
1BC1 : ac;
1BC2 : 7d;
1BC3 : ae;
1BC4 : 1a;
1BC5 : b0;
1BC6 : 56;
1BC7 : b0;
1BC8 : 76;
1BC9 : b1;
1BCA : 03;
1BCB : b1;
1BCC : 94;
1BCD : b1;
1BCE : d6;
1BCF : b1;
1BD0 : fa;
1BD1 : b7;
1BD2 : f8;
1BD3 : 9b;
1BD4 : 0c;
1BD5 : 9c;
1BD6 : 26;
1BD7 : 9c;
1BD8 : 36;
1BD9 : 9c;
1BDA : 4c;
1BDB : 9c;
1BDC : 5a;
1BDD : 9c;
1BDE : 70;
1BDF : 9c;
1BE0 : 80;
1BE1 : 9c;
1BE2 : ae;
1BE3 : 9c;
1BE4 : b8;
1BE5 : 9c;
1BE6 : c4;
1BE7 : 9c;
1BE8 : c4;
1BE9 : 9c;
1BEA : c4;
1BEB : 9c;
1BEC : c6;
1BED : 9c;
1BEE : c8;
1BEF : 9c;
1BF0 : ca;
1BF1 : 9c;
1BF2 : cc;
1BF3 : 9c;
1BF4 : d0;
1BF5 : 9c;
1BF6 : d4;
1BF7 : 9c;
1BF8 : d9;
1BF9 : 9f;
1BFA : e8;
1BFB : 9f;
1BFC : f7;
1BFD : 9f;
1BFE : 06;
1BFF : a0;
1C00 : 15;
1C01 : a0;
1C02 : 15;
1C03 : a0;
1C04 : 24;
1C05 : a0;
1C06 : 29;
1C07 : a0;
1C08 : 38;
1C09 : a0;
1C0A : f7;
1C0B : a0;
1C0C : 3d;
1C0D : a0;
1C0E : 49;
1C0F : a0;
1C10 : 3d;
1C11 : a0;
1C12 : 49;
1C13 : a0;
1C14 : 51;
1C15 : a0;
1C16 : 51;
1C17 : a0;
1C18 : 51;
1C19 : a0;
1C1A : 51;
1C1B : a0;
1C1C : 51;
1C1D : a0;
1C1E : 5c;
1C1F : a0;
1C20 : 67;
1C21 : a0;
1C22 : 72;
1C23 : a0;
1C24 : 7d;
1C25 : a0;
1C26 : 89;
1C27 : a0;
1C28 : 9a;
1C29 : a0;
1C2A : 9a;
1C2B : a0;
1C2C : ab;
1C2D : a0;
1C2E : bd;
1C2F : a0;
1C30 : d0;
1C31 : a0;
1C32 : e4;
1C33 : a0;
1C34 : f7;
1C35 : a0;
1C36 : d8;
1C37 : 9c;
1C38 : e9;
1C39 : 9c;
1C3A : fa;
1C3B : 9c;
1C3C : 0f;
1C3D : 9d;
1C3E : fa;
1C3F : 9c;
1C40 : fa;
1C41 : 9c;
1C42 : 26;
1C43 : 9d;
1C44 : 3d;
1C45 : 9d;
1C46 : 26;
1C47 : 9d;
1C48 : 26;
1C49 : 9d;
1C4A : f7;
1C4B : a0;
1C4C : 55;
1C4D : 9d;
1C4E : 67;
1C4F : 9d;
1C50 : 55;
1C51 : 9d;
1C52 : bd;
1C53 : a0;
1C54 : 79;
1C55 : 9d;
1C56 : e4;
1C57 : a0;
1C58 : f7;
1C59 : a0;
1C5A : 8d;
1C5B : 9d;
1C5C : 9f;
1C5D : 9d;
1C5E : b1;
1C5F : 9d;
1C60 : c3;
1C61 : 9d;
[...]
78E7 : a9;
78E8 : 90;
78E9 : 8d;
78EA : 00;
78EB : 40;
78EC : 8d;
78ED : 0c;
78EE : 40;
78EF : 60;
78F0 : a4;
78F1 : ff;
78F2 : f0;
78F3 : 0e;
78F4 : 84;
78F5 : f1;
78F6 : 46;
78F7 : ff;
78F8 : b0;
78F9 : 8d;
78FA : 46;
78FB : ff;
78FC : b0;
78FD : a8;
78FE : 46;
78FF : ff;
7900 : b0;
7901 : 0e;
7902 : a5;
7903 : f1;
7904 : f0;
7905 : 09;
7906 : 4a;
7907 : b0;
7908 : 8c;
7909 : 4a;
790A : b0;
790B : a7;
790C : 4a;
790D : b0;
790E : 0e;
790F : 60;
7910 : a9;
7911 : 05;
7912 : 85;
7913 : f6;
7914 : a0;
7915 : 9d;
7916 : a2;
7917 : 9b;
7918 : a9;
7919 : 00;
791A : 20;
791B : 52;
791C : f8;
791D : a5;
791E : f6;
791F : c9;
7920 : 03;
7921 : d0;
7922 : 05;
7923 : a9;
7924 : 93;
7925 : 8d;
7926 : 01;
7927 : 40;
7928 : d0;
7929 : b2;
792A : 84;
792B : f2;
792C : a9;
792D : 36;
792E : 8d;
792F : e3;
7930 : 07;
7931 : a2;
7932 : 46;
7933 : a0;
7934 : 7f;
7935 : a9;
7936 : 28;
7937 : 20;
7938 : 73;
7939 : f8;
793A : ad;
793B : e3;
793C : 07;
793D : c9;
793E : 18;
793F : d0;
7940 : 05;
7941 : a9;
7942 : 20;
7943 : 20;
7944 : 79;
7945 : f8;
7946 : d0;
7947 : 10;
7948 : 84;
7949 : f2;
794A : a9;
794B : 08;
794C : 8d;
794D : e3;
794E : 07;
794F : a2;
7950 : 41;
7951 : a0;
7952 : 7f;
7953 : a9;
7954 : 1c;
7955 : 20;
7956 : 73;
7957 : f8;
7958 : ce;
7959 : e3;
795A : 07;
795B : d0;
795C : 09;
795D : a9;
795E : 00;
795F : 85;
7960 : f2;
7961 : a9;
7962 : 90;
7963 : 8d;
7964 : 04;
7965 : 40;
7966 : 60;
7967 : a4;
7968 : fe;
7969 : c0;
796A : 04;
796B : f0;
796C : 11;
796D : a5;
796E : f2;
796F : 4a;
7970 : b0;
7971 : c8;
7972 : 46;
7973 : fe;
7974 : b0;
7975 : b4;
7976 : 46;
7977 : fe;
7978 : b0;
7979 : ce;
797A : 4a;
797B : b0;
797C : db;
797D : 60;
797E : 4c;
797F : c2;
7980 : fb;
7981 : 11;
7982 : 12;
7983 : 13;
7984 : 15;
7985 : 17;
7986 : 19;
7987 : 1a;
7988 : 1b;
7989 : 1d;
798A : 1e;
798B : 1e;
798C : 1f;
798D : 1f;
798E : 0f;
798F : 0f;
7990 : 0e;
7991 : 0e;
7992 : 0d;
7993 : 0d;
7994 : 0c;
7995 : 0c;
7996 : 0b;
7997 : 0b;
7998 : 0b;
7999 : 0a;
799A : 0a;
799B : 17;
799C : 19;
799D : 1b;
799E : 1d;
799F : 1f;
79A0 : 1c;
79A1 : 1a;
79A2 : 18;
79A3 : 1c;
79A4 : 1b;
79A5 : 06;
79A6 : 06;
79A7 : 06;
79A8 : 07;
79A9 : 08;
79AA : 09;
79AB : 0a;
79AC : 0a;
79AD : 0b;
79AE : 0b;
79AF : 1f;
79B0 : 1f;
79B1 : 19;
79B2 : 16;
79B3 : 13;
79B4 : 0b;
79B5 : 09;
79B6 : 0d;
79B7 : 0e;
79B8 : 0f;
79B9 : a9;
79BA : 0c;
79BB : 8d;
79BC : e9;
79BD : 07;
79BE : ac;
79BF : e9;
79C0 : 07;
79C1 : be;
79C2 : 8d;
79C3 : f9;
79C4 : b9;
79C5 : 80;
79C6 : f9;
79C7 : d0;
79C8 : 0e;
79C9 : a9;
79CA : 0a;
79CB : 8d;
79CC : e9;
79CD : 07;
79CE : ac;
79CF : e9;
79D0 : 07;
79D1 : be;
79D2 : a4;
79D3 : f9;
79D4 : b9;
79D5 : 9a;
79D6 : f9;
79D7 : d0;
79D8 : 37;
79D9 : a4;
79DA : fc;
79DB : f0;
79DC : 13;
79DD : 8c;
79DE : d8;
79DF : 07;
79E0 : 46;
79E1 : fc;
79E2 : b0;
79E3 : d5;
79E4 : 46;
79E5 : fc;
79E6 : b0;
79E7 : e1;
79E8 : 46;
79E9 : fc;
79EA : b0;
79EB : 16;
79EC : 46;
79ED : fc;
79EE : b0;
79EF : 22;
79F0 : ad;
79F1 : d8;
79F2 : 07;
79F3 : f0;
79F4 : 0c;
79F5 : 4a;
79F6 : b0;
79F7 : c6;
79F8 : 4a;
79F9 : b0;
79FA : d3;
79FB : 4a;
79FC : b0;
79FD : 09;
79FE : 4a;
79FF : b0;
7A00 : 25;
7A01 : 60;
7A02 : a9;
7A03 : 05;
7A04 : 8d;
7A05 : e9;
7A06 : 07;
7A07 : ac;
7A08 : e9;
7A09 : 07;
7A0A : be;
7A0B : b3;
7A0C : f9;
7A0D : b9;
7A0E : ae;
7A0F : f9;
7A10 : d0;
7A11 : 09;
7A12 : a9;
7A13 : 03;
7A14 : 8d;
7A15 : e9;
7A16 : 07;
7A17 : a2;
7A18 : 0c;
7A19 : a9;
7A1A : 3f;
7A1B : 8d;
7A1C : 0c;
7A1D : 40;
7A1E : 8e;
7A1F : 0e;
7A20 : 40;
7A21 : a9;
7A22 : 18;
7A23 : 8d;
7A24 : 0f;
7A25 : 40;
7A26 : ce;
7A27 : e9;
7A28 : 07;
7A29 : d0;
7A2A : 0a;
7A2B : a9;
7A2C : f0;
7A2D : 8d;
7A2E : 0c;
7A2F : 40;
7A30 : a9;
7A31 : 00;
7A32 : 8d;
7A33 : d8;
7A34 : 07;
7A35 : 60;
7A36 : 09;
7A37 : 08;
7A38 : 09;
7A39 : 08;
7A3A : 07;
7A3B : 06;
7A3C : 05;
7A3D : 0c;
7A3E : 0c;
7A3F : 0d;
7A40 : 0d;
7A41 : 0d;
7A42 : 0d;
7A43 : 0d;
7A44 : 0a;
7A45 : 0e;
7A46 : 0f;
7A47 : 11;
7A48 : 11;
7A49 : 14;
7A4A : 17;
7A4B : 08;
7A4C : 08;
7A4D : 08;
7A4E : 09;
7A4F : 08;
7A50 : 07;
7A51 : 05;
7A52 : 0b;
7A53 : 0b;
7A54 : 0b;
7A55 : 0c;
7A56 : 0c;
7A57 : 0c;
7A58 : 0d;
7A59 : 0d;
7A5A : 0e;
7A5B : 0f;
7A5C : 12;
7A5D : 13;
7A5E : 14;
7A5F : 15;
7A60 : 09;
7A61 : 08;
7A62 : 09;
7A63 : 08;
7A64 : 07;
7A65 : 06;
7A66 : 05;
7A67 : 0b;
7A68 : 0b;
7A69 : 0c;
7A6A : 0c;
7A6B : 0c;
7A6C : 0c;
7A6D : 0c;
7A6E : 0e;
7A6F : 10;
7A70 : 11;
7A71 : 13;
7A72 : 13;
7A73 : 16;
7A74 : 19;
7A75 : 09;
7A76 : 08;
7A77 : 09;
7A78 : 08;
7A79 : 07;
7A7A : 06;
7A7B : 05;
7A7C : 0e;
7A7D : 0e;
7A7E : 0f;
7A7F : 0f;
7A80 : 0f;
7A81 : 0f;
7A82 : 0f;
7A83 : 0b;
7A84 : 0b;
7A85 : 0b;
7A86 : 0f;
7A87 : 0f;
7A88 : 12;
7A89 : 13;
7A8A : ad;
7A8B : d9;
7A8C : 07;
7A8D : f0;
7A8E : 67;
7A8F : c9;
7A90 : 08;
7A91 : f0;
7A92 : 58;
7A93 : ce;
7A94 : da;
7A95 : 07;
7A96 : d0;
7A97 : 5d;
7A98 : ce;
7A99 : eb;
7A9A : 07;
7A9B : f0;
7A9C : 53;
7A9D : ac;
7A9E : eb;
7A9F : 07;
7AA0 : ad;
7AA1 : d9;
7AA2 : 07;
7AA3 : c9;
7AA4 : 80;
7AA5 : f0;
7AA6 : 35;
7AA7 : c9;
7AA8 : 40;
7AA9 : f0;
7AAA : 22;
7AAB : c9;
7AAC : 20;
7AAD : f0;
7AAE : 0f;
7AAF : b9;
7AB0 : 43;
7AB1 : fa;
7AB2 : 8d;
7AB3 : da;
7AB4 : 07;
7AB5 : be;
7AB6 : 3c;
7AB7 : fa;
7AB8 : b9;
7AB9 : 35;
7ABA : fa;
7ABB : a8;
7ABC : d0;
7ABD : 64;
7ABE : b9;
7ABF : 58;
7AC0 : fa;
7AC1 : 8d;
7AC2 : da;
7AC3 : 07;
7AC4 : be;
7AC5 : 51;
7AC6 : fa;
7AC7 : b9;
7AC8 : 4a;
7AC9 : fa;
7ACA : a8;
7ACB : d0;
7ACC : 55;
7ACD : b9;
7ACE : 6d;
7ACF : fa;
7AD0 : 8d;
7AD1 : da;
7AD2 : 07;
7AD3 : be;
7AD4 : 66;
7AD5 : fa;
7AD6 : b9;
7AD7 : 5f;
7AD8 : fa;
7AD9 : a8;
7ADA : d0;
7ADB : 46;
7ADC : b9;
7ADD : 82;
7ADE : fa;
7ADF : 8d;
7AE0 : da;
7AE1 : 07;
7AE2 : be;
7AE3 : 7b;
7AE4 : fa;
7AE5 : b9;
7AE6 : 74;
7AE7 : fa;
7AE8 : a8;
7AE9 : d0;
7AEA : 37;
7AEB : ce;
7AEC : da;
7AED : 07;
7AEE : d0;
7AEF : 05;
7AF0 : a9;
7AF1 : 00;
7AF2 : 8d;
7AF3 : d9;
7AF4 : 07;
7AF5 : 60;
7AF6 : a5;
7AF7 : fd;
7AF8 : f0;
7AF9 : 41;
7AFA : c9;
7AFB : 20;
7AFC : d0;
7AFD : 04;
7AFE : a0;
7AFF : 0a;
7B00 : d0;
7B01 : 1e;
7B02 : c9;
7B03 : 08;
7B04 : f0;
7B05 : 0c;
7B06 : 90;
7B07 : 12;
7B08 : 8d;
7B09 : d9;
7B0A : 07;
7B0B : a2;
7B0C : 08;
7B0D : 8e;
7B0E : eb;
7B0F : 07;
7B10 : d0;
7B11 : 86;
7B12 : 8d;
7B13 : d9;
7B14 : 07;
7B15 : a2;
7B16 : 3a;
7B17 : 8e;
7B18 : da;
7B19 : 07;
7B1A : a0;
7B1B : 00;
7B1C : c8;
7B1D : 4a;
7B1E : 90;
7B1F : fc;
7B20 : a2;
7B21 : 0f;
7B22 : 8e;
7B23 : 10;
7B24 : 40;
7B25 : b9;
7B26 : e2;
7B27 : ff;
7B28 : 8d;
7B29 : 12;
7B2A : 40;
7B2B : b9;
7B2C : ec;
7B2D : ff;
7B2E : 8d;
7B2F : 13;
7B30 : 40;
7B31 : a9;
7B32 : 0f;
7B33 : 8d;
7B34 : 15;
7B35 : 40;
7B36 : a9;
7B37 : 1f;
7B38 : 8d;
7B39 : 15;
7B3A : 40;
7B3B : 60;
7B3C : a5;
7B3D : fb;
7B3E : d0;
7B3F : 05;
7B40 : a5;
7B41 : f5;
7B42 : d0;
7B43 : 61;
7B44 : 60;
7B45 : c9;
7B46 : 40;
7B47 : d0;
7B48 : 04;
7B49 : a4;
7B4A : f5;
7B4B : 84;
7B4C : f3;
7B4D : c9;
7B4E : 01;
7B4F : d0;
7B50 : 05;
7B51 : a0;
7B52 : 08;
7B53 : 8c;
7B54 : e8;
7B55 : 07;
7B56 : 85;
7B57 : f5;
7B58 : c9;
7B59 : 01;
7B5A : d0;
7B5B : 0c;
7B5C : ee;
7B5D : e8;
7B5E : 07;
7B5F : ac;
7B60 : e8;
7B61 : 07;
7B62 : c0;
7B63 : 13;
7B64 : d0;
7B65 : 0a;
7B66 : f0;
7B67 : e9;
7B68 : a0;
7B69 : 00;
7B6A : 84;
7B6B : f0;
7B6C : c8;
7B6D : 4a;
7B6E : 90;
7B6F : fc;
7B70 : b9;
7B71 : e8;
7B72 : fc;
7B73 : a8;
7B74 : b9;
7B75 : e9;
7B76 : fc;
7B77 : 85;
7B78 : f7;
7B79 : b9;
7B7A : ea;
7B7B : fc;
7B7C : 85;
7B7D : f9;
7B7E : b9;
7B7F : eb;
7B80 : fc;
7B81 : 85;
7B82 : fa;
7B83 : b9;
7B84 : ec;
7B85 : fc;
7B86 : 85;
7B87 : f8;
7B88 : b9;
7B89 : ed;
7B8A : fc;
7B8B : 85;
7B8C : f4;
7B8D : b9;
7B8E : ee;
7B8F : fc;
7B90 : 8d;
7B91 : dc;
7B92 : 07;
7B93 : a9;
7B94 : 01;
7B95 : 8d;
7B96 : c2;
7B97 : 07;
7B98 : 8d;
7B99 : c6;
7B9A : 07;
7B9B : 8d;
7B9C : ca;
7B9D : 07;
7B9E : 8d;
7B9F : dd;
7BA0 : 07;
7BA1 : a9;
7BA2 : 00;
7BA3 : 85;
7BA4 : f0;
7BA5 : ce;
7BA6 : c2;
7BA7 : 07;
7BA8 : d0;
7BA9 : 5f;
7BAA : a4;
7BAB : f0;
7BAC : e6;
7BAD : f0;
7BAE : b1;
7BAF : f9;
7BB0 : f0;
7BB1 : 04;
7BB2 : 10;
7BB3 : 28;
7BB4 : d0;
7BB5 : 1a;
7BB6 : a5;
7BB7 : f5;
7BB8 : c9;
7BB9 : 80;
7BBA : d0;
7BBB : 02;
7BBC : a5;
7BBD : f3;
7BBE : 29;
7BBF : 03;
7BC0 : d0;
7BC1 : 94;
7BC2 : a9;
7BC3 : 00;
7BC4 : 85;
7BC5 : f5;
7BC6 : 8d;
7BC7 : 08;
7BC8 : 40;
7BC9 : 20;
7BCA : e7;
7BCB : f8;
7BCC : 8d;
7BCD : 04;
7BCE : 40;
7BCF : 60;
7BD0 : 20;
7BD1 : df;
7BD2 : fc;
7BD3 : 8d;
7BD4 : c0;
7BD5 : 07;
7BD6 : a4;
7BD7 : f0;
7BD8 : e6;
7BD9 : f0;
7BDA : b1;
7BDB : f9;
7BDC : a6;
7BDD : f2;
7BDE : d0;
7BDF : 23;
7BE0 : 20;
7BE1 : 79;
7BE2 : f8;
7BE3 : a8;
7BE4 : f0;
7BE5 : 02;
7BE6 : a0;
7BE7 : 0f;
7BE8 : 8c;
7BE9 : df;
7BEA : 07;
7BEB : a2;
7BEC : 86;
7BED : ad;
7BEE : c2;
7BEF : 07;
7BF0 : c9;
7BF1 : 10;
7BF2 : b0;
7BF3 : 02;
7BF4 : a2;
7BF5 : 84;
7BF6 : a5;
7BF7 : f5;
7BF8 : c9;
7BF9 : 20;
7BFA : d0;
7BFB : 02;
7BFC : a2;
7BFD : 87;
7BFE : a0;
7BFF : 7f;
7C00 : 20;
7C01 : 6c;
7C02 : f8;
7C03 : ad;
7C04 : c0;
7C05 : 07;
7C06 : 8d;
7C07 : c2;
7C08 : 07;
7C09 : a5;
7C0A : f2;
7C0B : d0;
7C0C : 14;
7C0D : a5;
7C0E : f5;
7C0F : 29;
7C10 : 03;
7C11 : f0;
7C12 : 0e;
7C13 : ac;
7C14 : df;
7C15 : 07;
7C16 : f0;
7C17 : 03;
7C18 : ce;
7C19 : df;
7C1A : 07;
7C1B : b9;
7C1C : 7e;
7C1D : ff;
7C1E : 8d;
7C1F : 04;
7C20 : 40;
7C21 : a4;
7C22 : f4;
7C23 : f0;
7C24 : 43;
7C25 : ce;
7C26 : c6;
7C27 : 07;
7C28 : d0;
7C29 : 2a;
7C2A : a4;
7C2B : f4;
7C2C : e6;
7C2D : f4;
7C2E : b1;
7C2F : f9;
7C30 : d0;
7C31 : 04;
7C32 : a2;
7C33 : 10;
7C34 : d0;
7C35 : 16;
7C36 : 20;
7C37 : d9;
7C38 : fc;
7C39 : 8d;
7C3A : c6;
7C3B : 07;
7C3C : 8a;
7C3D : 29;
7C3E : 3e;
7C3F : 20;
7C40 : 58;
7C41 : f8;
7C42 : a8;
7C43 : f0;
7C44 : 02;
7C45 : a0;
7C46 : 3f;
7C47 : 8c;
7C48 : c3;
7C49 : 07;
7C4A : a2;
7C4B : 06;
7C4C : a0;
7C4D : 7f;
7C4E : 8c;
7C4F : 01;
7C50 : 40;
7C51 : 8e;
7C52 : 00;
7C53 : 40;
7C54 : a5;
7C55 : f5;
7C56 : 29;
7C57 : 20;
7C58 : f0;
7C59 : 0e;
7C5A : ac;
7C5B : c3;
7C5C : 07;
7C5D : f0;
7C5E : 03;
7C5F : ce;
7C60 : c3;
7C61 : 07;
7C62 : b9;
7C63 : 8e;
7C64 : ff;
7C65 : 8d;
7C66 : 00;
7C67 : 40;
7C68 : a5;
7C69 : f8;
7C6A : f0;
7C6B : 3c;
7C6C : ce;
7C6D : ca;
7C6E : 07;
7C6F : d0;
7C70 : 3a;
7C71 : a4;
7C72 : f8;
7C73 : e6;
7C74 : f8;
7C75 : b1;
7C76 : f9;
7C77 : f0;
7C78 : 2f;
7C79 : 10;
7C7A : 1c;
7C7B : 20;
7C7C : df;
7C7D : fc;
7C7E : 8d;
7C7F : c8;
7C80 : 07;
7C81 : 18;
7C82 : 69;
7C83 : fe;
7C84 : 0a;
7C85 : 0a;
7C86 : c9;
7C87 : 38;
7C88 : 90;
7C89 : 02;
7C8A : a9;
7C8B : 7f;
7C8C : 8d;
7C8D : 08;
7C8E : 40;
7C8F : a4;
7C90 : f8;
7C91 : e6;
7C92 : f8;
7C93 : b1;
7C94 : f9;
7C95 : f0;
7C96 : 11;
7C97 : 20;
7C98 : 7d;
7C99 : f8;
7C9A : ad;
7C9B : c8;
7C9C : 07;
7C9D : 8d;
7C9E : ca;
7C9F : 07;
7CA0 : a5;
7CA1 : f5;
7CA2 : c9;
7CA3 : 20;
7CA4 : d0;
7CA5 : 05;
7CA6 : a9;
7CA7 : ff;
7CA8 : 8d;
7CA9 : 08;
7CAA : 40;
7CAB : a5;
7CAC : f5;
7CAD : 29;
7CAE : 01;
7CAF : f0;
7CB0 : 27;
7CB1 : ce;
7CB2 : dd;
7CB3 : 07;
7CB4 : d0;
7CB5 : 22;
7CB6 : ac;
7CB7 : dc;
7CB8 : 07;
7CB9 : ee;
7CBA : dc;
7CBB : 07;
7CBC : b1;
7CBD : f9;
7CBE : 20;
7CBF : d9;
7CC0 : fc;
7CC1 : 8d;
7CC2 : dd;
7CC3 : 07;
7CC4 : 8a;
7CC5 : 29;
7CC6 : 3e;
7CC7 : f0;
7CC8 : 0f;
7CC9 : a9;
7CCA : 14;
7CCB : a2;
7CCC : 03;
7CCD : a0;
7CCE : 18;
7CCF : 8d;
7CD0 : 0c;
7CD1 : 40;
7CD2 : 8e;
7CD3 : 0e;
7CD4 : 40;
7CD5 : 8c;
7CD6 : 0f;
7CD7 : 40;
7CD8 : 60;
7CD9 : aa;
7CDA : 6a;
7CDB : 8a;
7CDC : 2a;
7CDD : 2a;
7CDE : 2a;
7CDF : 29;
7CE0 : 07;
7CE1 : 18;
7CE2 : 65;
7CE3 : f7;
7CE4 : a8;
7CE5 : b9;
7CE6 : 58;
7CE7 : ff;
7CE8 : 60;
7CE9 : 35;
7CEA : 17;
7CEB : 12;
7CEC : 26;
7CED : 2b;
7CEE : 30;
7CEF : 1c;
7CF0 : 21;
7CF1 : 35;
7CF2 : 35;
7CF3 : 35;
7CF4 : 35;
7CF5 : 3b;
7CF6 : 3b;
7CF7 : 35;
7CF8 : 35;
7CF9 : 41;
7CFA : 3b;
7CFB : 07;
7CFC : 78;
7CFD : fd;
7CFE : 1d;
7CFF : 00;
7D00 : 0e;
7D01 : 5d;
7D02 : fe;
7D03 : 00;
7D04 : 00;
7D05 : 07;
7D06 : 65;
7D07 : fe;
7D08 : 00;
7D09 : 00;
7D0A : 07;
7D0B : 6b;
7D0C : fe;
7D0D : 00;
7D0E : 00;
7D0F : 00;
7D10 : a9;
7D11 : fd;
7D12 : 40;
7D13 : 26;
7D14 : 07;
7D15 : 1b;
7D16 : fe;
7D17 : 29;
7D18 : 19;
7D19 : 1e;
7D1A : 71;
7D1B : fe;
7D1C : 68;
7D1D : 5e;
7D1E : 16;
7D1F : 30;
7D20 : fd;
7D21 : 00;
7D22 : 00;
7D23 : 3c;
7D24 : 16;
7D25 : 44;
7D26 : fd;
7D27 : 00;
7D28 : 00;
7D29 : 28;
7D2A : 16;
7D2B : 58;
7D2C : fd;
7D2D : 00;
7D2E : 00;
7D2F : 14;
7D30 : 81;
7D31 : 4c;
7D32 : 80;
7D33 : 4c;
7D34 : 4a;
7D35 : 81;
7D36 : 4c;
7D37 : 80;
7D38 : 4c;
7D39 : 4a;
7D3A : 81;
7D3B : 4c;
7D3C : 80;
7D3D : 4c;
7D3E : 4a;
7D3F : 4c;
7D40 : 4e;
7D41 : 4c;
7D42 : 4a;
7D43 : 00;
7D44 : 81;
7D45 : 50;
7D46 : 80;
7D47 : 50;
7D48 : 4e;
7D49 : 81;
7D4A : 50;
7D4B : 80;
7D4C : 50;
7D4D : 4e;
7D4E : 81;
7D4F : 50;
7D50 : 80;
7D51 : 50;
7D52 : 4e;
7D53 : 50;
7D54 : 54;
7D55 : 50;
7D56 : 4e;
7D57 : 00;
7D58 : 81;
7D59 : 52;
7D5A : 80;
7D5B : 52;
7D5C : 50;
7D5D : 81;
7D5E : 52;
7D5F : 80;
7D60 : 52;
7D61 : 50;
7D62 : 81;
7D63 : 52;
7D64 : 80;
7D65 : 52;
7D66 : 50;
7D67 : 52;
7D68 : 56;
7D69 : 52;
7D6A : 50;
7D6B : 00;
7D6C : 50;
7D6D : 10;
7D6E : 10;
7D6F : 50;
7D70 : 10;
7D71 : 10;
7D72 : 50;
7D73 : 10;
7D74 : 10;
7D75 : 50;
7D76 : 10;
7D77 : 10;
7D78 : 81;
7D79 : 32;
7D7A : 36;
7D7B : 82;
7D7C : 14;
7D7D : 10;
7D7E : 0e;
7D7F : 81;
7D80 : 0c;
7D81 : 0a;
7D82 : 82;
7D83 : 32;
7D84 : 81;
7D85 : 32;
7D86 : 36;
7D87 : 82;
7D88 : 0a;
7D89 : 81;
7D8A : 36;
7D8B : 14;
7D8C : 0a;
7D8D : 18;
7D8E : 0c;
7D8F : 40;
7D90 : 3e;
7D91 : 42;
7D92 : 82;
7D93 : 42;
7D94 : 00;
7D95 : 82;
7D96 : 04;
7D97 : 36;
7D98 : 0c;
7D99 : 0e;
7D9A : 10;
7D9B : 0e;
7D9C : 0c;
7D9D : 36;
7D9E : 81;
7D9F : 04;
7DA0 : 14;
7DA1 : 08;
7DA2 : 18;
7DA3 : 32;
7DA4 : 40;
7DA5 : 36;
7DA6 : 42;
7DA7 : 04;
7DA8 : 02;
7DA9 : 81;
7DAA : 24;
7DAB : 20;
7DAC : 1c;
7DAD : 1a;
7DAE : 40;
7DAF : 14;
7DB0 : 85;
7DB1 : 40;
7DB2 : 85;
7DB3 : 14;
7DB4 : 81;
7DB5 : 24;
7DB6 : 20;
7DB7 : 1c;
7DB8 : 1a;
7DB9 : 40;
7DBA : 14;
7DBB : 85;
7DBC : 40;
7DBD : 85;
7DBE : 14;
7DBF : 81;
7DC0 : 24;
7DC1 : 20;
7DC2 : 1c;
7DC3 : 1a;
7DC4 : 40;
7DC5 : 14;
7DC6 : 85;
7DC7 : 40;
7DC8 : 85;
7DC9 : 14;
7DCA : 82;
7DCB : 10;
7DCC : 81;
7DCD : 14;
7DCE : 00;
7DCF : 5c;
7DD0 : 5a;
7DD1 : 58;
7DD2 : 54;
7DD3 : 50;
7DD4 : 4c;
7DD5 : 51;
7DD6 : 4d;
7DD7 : 5c;
7DD8 : 5a;
7DD9 : 58;
7DDA : 54;
7DDB : 50;
7DDC : 4c;
7DDD : 51;
7DDE : 4d;
7DDF : 5c;
7DE0 : 5a;
7DE1 : 58;
7DE2 : 54;
7DE3 : 50;
7DE4 : 4c;
7DE5 : 51;
7DE6 : 4d;
7DE7 : 8a;
7DE8 : 4c;
7DE9 : 82;
7DEA : 04;
7DEB : 81;
7DEC : 04;
7DED : 82;
7DEE : 32;
7DEF : 81;
7DF0 : 32;
7DF1 : 82;
7DF2 : 0a;
7DF3 : 81;
7DF4 : 0a;
7DF5 : 0c;
7DF6 : 10;
7DF7 : 14;
7DF8 : 82;
7DF9 : 04;
7DFA : 81;
7DFB : 04;
7DFC : 82;
7DFD : 32;
7DFE : 81;
7DFF : 32;
7E00 : 82;
7E01 : 0a;
7E02 : 81;
7E03 : 0a;
7E04 : 0c;
7E05 : 10;
7E06 : 14;
7E07 : 82;
7E08 : 04;
7E09 : 81;
7E0A : 04;
7E0B : 82;
7E0C : 32;
7E0D : 81;
7E0E : 32;
7E0F : 82;
7E10 : 0a;
7E11 : 81;
7E12 : 0a;
7E13 : 82;
7E14 : 0c;
7E15 : 81;
7E16 : 0c;
7E17 : 82;
7E18 : 14;
7E19 : 81;
7E1A : 14;
7E1B : 81;
7E1C : 1a;
7E1D : 1c;
7E1E : 82;
7E1F : 20;
7E20 : 81;
7E21 : 1c;
7E22 : 1a;
7E23 : 82;
7E24 : 18;
7E25 : 1a;
7E26 : 18;
7E27 : 14;
7E28 : 10;
7E29 : 81;
7E2A : 14;
7E2B : 10;
7E2C : 82;
7E2D : 0c;
7E2E : 81;
7E2F : 0a;
7E30 : 3c;
7E31 : 82;
7E32 : 0c;
7E33 : 00;
7E34 : 54;
7E35 : 58;
7E36 : 9a;
7E37 : 58;
7E38 : 54;
7E39 : 8e;
7E3A : 94;
7E3B : 8e;
7E3C : 8c;
7E3D : 8a;
7E3E : 4c;
7E3F : 4a;
7E40 : 88;
7E41 : 44;
7E42 : 46;
7E43 : 88;
7E44 : 81;
7E45 : 0c;
7E46 : 0c;
7E47 : 36;
7E48 : 36;
7E49 : 0a;
7E4A : 0a;
7E4B : 3c;
7E4C : 3c;
7E4D : 0c;
7E4E : 0c;
7E4F : 36;
7E50 : 36;
7E51 : 0a;
7E52 : 0a;
7E53 : 3c;
7E54 : 3c;
7E55 : 0c;
7E56 : 0c;
7E57 : 36;
7E58 : 36;
7E59 : 14;
7E5A : 16;
7E5B : 18;
7E5C : 02;
7E5D : 81;
7E5E : 40;
7E5F : 40;
7E60 : 40;
7E61 : 02;
7E62 : 82;
7E63 : 02;
7E64 : 00;
7E65 : 80;
7E66 : 14;
7E67 : 1a;
7E68 : 1c;
7E69 : 20;
7E6A : 00;
7E6B : 80;
7E6C : 20;
7E6D : 1c;
7E6E : 1a;
7E6F : 14;
7E70 : 00;
7E71 : 80;
7E72 : 50;
7E73 : 04;
7E74 : 0a;
7E75 : 0e;
7E76 : 14;
7E77 : 0e;
7E78 : 1a;
7E79 : 14;
7E7A : 0e;
7E7B : 04;
7E7C : 0a;
7E7D : 0e;
7E7E : 38;
7E7F : 34;
7E80 : 08;
7E81 : 3e;
7E82 : 12;
7E83 : 3e;
7E84 : 42;
7E85 : 12;
7E86 : 3e;
7E87 : 34;
7E88 : 36;
7E89 : 3e;
7E8A : 50;
7E8B : 04;
7E8C : 0a;
7E8D : 0e;
7E8E : 14;
7E8F : 0e;
7E90 : 1a;
7E91 : 14;
7E92 : 0e;
7E93 : 04;
7E94 : 0a;
7E95 : 0e;
7E96 : 50;
7E97 : 04;
7E98 : 0a;
7E99 : 0e;
7E9A : 14;
7E9B : 0e;
7E9C : 1a;
7E9D : 14;
7E9E : 0e;
7E9F : 04;
7EA0 : 0a;
7EA1 : 0e;
7EA2 : 3a;
7EA3 : 54;
7EA4 : 06;
7EA5 : 0a;
7EA6 : 3e;
7EA7 : 0a;
7EA8 : 16;
7EA9 : 3e;
7EAA : 0a;
7EAB : 54;
7EAC : 06;
7EAD : 0a;
7EAE : 4e;
7EAF : 56;
7EB0 : 32;
7EB1 : 0c;
7EB2 : 10;
7EB3 : 0c;
7EB4 : 40;
7EB5 : 10;
7EB6 : 0c;
7EB7 : 56;
7EB8 : 32;
7EB9 : 0c;
7EBA : 50;
7EBB : 04;
7EBC : 0a;
7EBD : 0e;
7EBE : 14;
7EBF : 0e;
7EC0 : 1a;
7EC1 : 14;
7EC2 : 0e;
7EC3 : 04;
7EC4 : 0a;
7EC5 : 0e;
7EC6 : 81;
7EC7 : 0a;
7EC8 : 0e;
7EC9 : 14;
7ECA : 0e;
7ECB : 14;
7ECC : 82;
7ECD : 1a;
7ECE : 00;
7ECF : a5;
7ED0 : 23;
7ED1 : 29;
7ED2 : a5;
7ED3 : 9f;
7ED4 : ad;
7ED5 : 6b;
7ED6 : 66;
7ED7 : 6a;
7ED8 : ed;
7ED9 : 85;
7EDA : 30;
7EDB : 82;
7EDC : 2c;
7EDD : 84;
7EDE : 46;
7EDF : 83;
7EE0 : 12;
7EE1 : 46;
7EE2 : 44;
7EE3 : 85;
7EE4 : 30;
7EE5 : 82;
7EE6 : 24;
7EE7 : 84;
7EE8 : 2c;
7EE9 : 24;
7EEA : 26;
7EEB : 83;
7EEC : 44;
7EED : 20;
7EEE : 24;
7EEF : 26;
7EF0 : 2a;
7EF1 : 2c;
7EF2 : 2a;
7EF3 : 2c;
7EF4 : 2e;
7EF5 : 84;
7EF6 : 30;
7EF7 : 87;
7EF8 : 02;
7EF9 : ff;
7EFA : ff;
7EFB : ff;
7EFC : ff;
7EFD : ff;
7EFE : ff;
7EFF : ff;
7F00 : 00;
7F01 : 23;
7F02 : 00;
7F03 : 00;
7F04 : 02;
7F05 : 3a;
7F06 : 02;
7F07 : 1a;
7F08 : 01;
7F09 : fc;
7F0A : 01;
7F0B : ab;
7F0C : 01;
7F0D : 7c;
7F0E : 01;
7F0F : 52;
7F10 : 01;
7F11 : 3f;
7F12 : 01;
7F13 : 2d;
7F14 : 01;
7F15 : 1c;
7F16 : 01;
7F17 : 0c;
7F18 : 00;
7F19 : fd;
7F1A : 00;
7F1B : d4;
7F1C : 00;
7F1D : bd;
7F1E : 00;
7F1F : a8;
7F20 : 00;
7F21 : 9f;
7F22 : 00;
7F23 : 96;
7F24 : 00;
7F25 : 8d;
7F26 : 00;
7F27 : 85;
7F28 : 00;
7F29 : 7e;
7F2A : 00;
7F2B : 76;
7F2C : 00;
7F2D : 69;
7F2E : 00;
7F2F : 5e;
7F30 : 00;
7F31 : 53;
7F32 : 01;
7F33 : df;
7F34 : 02;
7F35 : 5c;
7F36 : 01;
7F37 : c4;
7F38 : 03;
7F39 : 89;
7F3A : 04;
7F3B : 35;
7F3C : 01;
7F3D : 93;
7F3E : 01;
7F3F : 67;
7F40 : 00;
7F41 : ee;
7F42 : 00;
7F43 : e1;
7F44 : 00;
7F45 : b2;
7F46 : 00;
7F47 : 70;
7F48 : 07;
7F49 : f2;
7F4A : 05;
7F4B : 01;
7F4C : 04;
7F4D : 75;
7F4E : 03;
7F4F : bf;
7F50 : 03;
7F51 : 57;
7F52 : 02;
7F53 : f9;
7F54 : 02;
7F55 : cf;
7F56 : 02;
7F57 : 80;
7F58 : 03;
7F59 : 07;
7F5A : 0e;
7F5B : 1c;
7F5C : 38;
7F5D : 15;
7F5E : 2a;
7F5F : 04;
7F60 : 08;
7F61 : 10;
7F62 : 20;
7F63 : 40;
7F64 : 18;
7F65 : 30;
7F66 : 05;
7F67 : 0a;
7F68 : 14;
7F69 : 28;
7F6A : 0d;
7F6B : 1e;
7F6C : 3c;
7F6D : 07;
7F6E : 06;
7F6F : 0c;
7F70 : 18;
7F71 : 30;
7F72 : 0e;
7F73 : 24;
7F74 : 10;
7F75 : 1e;
7F76 : 06;
7F77 : 09;
7F78 : 12;
7F79 : 0c;
7F7A : 24;
7F7B : 36;
7F7C : 48;
7F7D : 90;
7F7E : 90;
7F7F : 90;
7F80 : 91;
7F81 : 91;
7F82 : 91;
7F83 : 91;
7F84 : 92;
7F85 : 92;
7F86 : 92;
7F87 : 92;
7F88 : 93;
7F89 : 93;
7F8A : 94;
7F8B : 94;
7F8C : 95;
7F8D : 95;
7F8E : 10;
7F8F : 11;
7F90 : 12;
7F91 : 13;
7F92 : 14;
7F93 : 15;
7F94 : 16;
7F95 : 17;
7F96 : 17;
7F97 : 18;
7F98 : 18;
7F99 : 19;
7F9A : 19;
7F9B : 1a;
7F9C : 1a;
7F9D : 1b;
7F9E : 1b;
7F9F : 1c;
7FA0 : 1c;
7FA1 : 1d;
7FA2 : 1d;
7FA3 : 1d;
7FA4 : 1e;
7FA5 : 1e;
7FA6 : 5e;
7FA7 : 5f;
7FA8 : 5f;
7FA9 : 5f;
7FAA : 5f;
7FAB : 5f;
7FAC : 5f;
7FAD : 5f;
7FAE : 5f;
7FAF : 5f;
7FB0 : 5f;
7FB1 : 5f;
7FB2 : 5f;
7FB3 : 5f;
7FB4 : 5f;
7FB5 : 5f;
7FB6 : 9f;
7FB7 : 9f;
7FB8 : 9f;
7FB9 : 9f;
7FBA : 9f;
7FBB : 9f;
7FBC : 9f;
7FBD : 9f;
7FBE : 9f;
7FBF : 9f;
7FC0 : 9f;
7FC1 : 9f;
7FC2 : 9f;
7FC3 : 9f;
7FC4 : 9f;
7FC5 : 9f;
7FC6 : 9f;
7FC7 : 9f;
7FC8 : 9f;
7FC9 : 9e;
7FCA : 9d;
7FCB : 9c;
7FCC : 9b;
7FCD : 9a;
7FCE : b1;
7FCF : b1;
7FD0 : b1;
7FD1 : b2;
7FD2 : b2;
7FD3 : b4;
7FD4 : b5;
7FD5 : b6;
7FD6 : b7;
7FD7 : b8;
7FD8 : b9;
7FD9 : b9;
7FDA : ba;
7FDB : ba;
7FDC : ba;
7FDD : ba;
7FDE : ba;
7FDF : bb;
7FE0 : bc;
7FE1 : bb;
7FE2 : ba;
7FE3 : 70;
7FE4 : 7c;
7FE5 : 8b;
7FE6 : b1;
7FE7 : 94;
7FE8 : 9b;
7FE9 : a1;
7FEA : a6;
7FEB : ac;
7FEC : 8e;
7FED : 30;
7FEE : 3c;
7FEF : 0c;
7FF0 : bf;
7FF1 : 1c;
7FF2 : 18;
7FF3 : 14;
7FF4 : 18;
7FF5 : 14;
7FF6 : 18;
7FF7 : ff;
7FF8 : ff;
7FF9 : ff;
7FFA : d6;
7FFB : 82;
7FFC : 58;
7FFD : 82;
7FFE : f0;
7FFF : ff;
END;