DEPTH=32768;
WIDTH=8;
ADDRESS_RADIX=HEX;
DATA_RADIX=HEX;
CONTENT
BEGIN
   0 : 4c;
   1 : f5;
   2 : c5;
   3 : 60;
   4 : 78;
   5 : d8;
   6 : a2;
   7 : ff;
   8 : 9a;
   9 : ad;
   A : 02;
   B : 20;
   C : 10;
   D : fb;
   E : ad;
   F : 02;
  10 : 20;
  11 : 10;
  12 : fb;
  13 : a9;
  14 : 00;
  15 : 8d;
  16 : 00;
  17 : 20;
  18 : 8d;
  19 : 01;
  1A : 20;
  1B : 8d;
  1C : 05;
  1D : 20;
  1E : 8d;
  1F : 05;
  20 : 20;
  21 : ad;
  22 : 02;
  23 : 20;
  24 : a2;
  25 : 20;
  26 : 8e;
  27 : 06;
  28 : 20;
  29 : a2;
  2A : 00;
  2B : 8e;
  2C : 06;
  2D : 20;
  2E : a2;
  2F : 00;
  30 : a0;
  31 : 0f;
  32 : a9;
  33 : 00;
  34 : 8d;
  35 : 07;
  36 : 20;
  37 : ca;
  38 : d0;
  39 : fa;
  3A : 88;
  3B : d0;
  3C : f7;
  3D : a9;
  3E : 3f;
  3F : 8d;
  40 : 06;
  41 : 20;
  42 : a9;
  43 : 00;
  44 : 8d;
  45 : 06;
  46 : 20;
  47 : a2;
  48 : 00;
  49 : bd;
  4A : 78;
  4B : ff;
  4C : 8d;
  4D : 07;
  4E : 20;
  4F : e8;
  50 : e0;
  51 : 20;
  52 : d0;
  53 : f5;
  54 : a9;
  55 : c0;
  56 : 8d;
  57 : 17;
  58 : 40;
  59 : a9;
  5A : 00;
  5B : 8d;
  5C : 15;
  5D : 40;
  5E : a9;
  5F : 78;
  60 : 85;
  61 : d0;
  62 : a9;
  63 : fb;
  64 : 85;
  65 : d1;
  66 : a9;
  67 : 7f;
  68 : 85;
  69 : d3;
  6A : a0;
  6B : 00;
  6C : 8c;
  6D : 06;
  6E : 20;
  6F : 8c;
  70 : 06;
  71 : 20;
  72 : a9;
  73 : 00;
  74 : 85;
  75 : d7;
  76 : a9;
  77 : 07;
  78 : 85;
  79 : d0;
  7A : a9;
  7B : c3;
  7C : 85;
  7D : d1;
  7E : 20;
  7F : a7;
  80 : c2;
  81 : 20;
  82 : 8d;
  83 : c2;
  84 : a2;
  85 : 12;
  86 : 20;
  87 : 61;
  88 : c2;
  89 : a5;
  8A : d5;
  8B : 4a;
  8C : 4a;
  8D : 4a;
  8E : b0;
  8F : 1c;
  90 : 4a;
  91 : b0;
  92 : 0c;
  93 : 4a;
  94 : b0;
  95 : 27;
  96 : 4a;
  97 : b0;
  98 : 03;
  99 : 4c;
  9A : 81;
  9B : c0;
  9C : 4c;
  9D : 26;
  9E : c1;
  9F : 20;
  A0 : 6f;
  A1 : c6;
  A2 : c6;
  A3 : d7;
  A4 : 10;
  A5 : db;
  A6 : a9;
  A7 : 0d;
  A8 : 85;
  A9 : d7;
  AA : d0;
  AB : d5;
  AC : 20;
  AD : 6f;
  AE : c6;
  AF : e6;
  B0 : d7;
  B1 : a5;
  B2 : d7;
  B3 : c9;
  B4 : 0e;
  B5 : 90;
  B6 : ca;
  B7 : a9;
  B8 : 00;
  B9 : 85;
  BA : d7;
  BB : f0;
  BC : c4;
  BD : 20;
  BE : 89;
  BF : c6;
  C0 : a5;
  C1 : d7;
  C2 : f0;
  C3 : 06;
  C4 : 20;
  C5 : ed;
  C6 : c0;
  C7 : 4c;
  C8 : 81;
  C9 : c0;
  CA : a9;
  CB : 00;
  CC : 85;
  CD : d8;
  CE : e6;
  CF : d7;
  D0 : 20;
  D1 : ed;
  D2 : c0;
  D3 : e6;
  D4 : d7;
  D5 : a5;
  D6 : d7;
  D7 : c9;
  D8 : 0e;
  D9 : d0;
  DA : f5;
  DB : a9;
  DC : 00;
  DD : 85;
  DE : d7;
  DF : a5;
  E0 : d8;
  E1 : f0;
  E2 : 02;
  E3 : a9;
  E4 : ff;
  E5 : 85;
  E6 : 00;
  E7 : 20;
  E8 : ed;
  E9 : c1;
  EA : 4c;
  EB : 81;
  EC : c0;
  ED : a5;
  EE : d7;
  EF : 0a;
  F0 : aa;
  F1 : bd;
  F2 : 0a;
  F3 : c1;
  F4 : 8d;
  F5 : 00;
  F6 : 02;
  F7 : bd;
  F8 : 0b;
  F9 : c1;
  FA : 8d;
  FB : 01;
  FC : 02;
  FD : a9;
  FE : c1;
  FF : 48;
 100 : a9;
 101 : de;
 102 : 48;
 103 : a9;
 104 : 00;
 105 : 85;
 106 : 00;
 107 : 6c;
 108 : 00;
 109 : 02;
 10A : 2d;
 10B : c7;
 10C : 2d;
 10D : c7;
 10E : db;
 10F : c7;
 110 : 85;
 111 : c8;
 112 : de;
 113 : cb;
 114 : f8;
 115 : cd;
 116 : ee;
 117 : ce;
 118 : a2;
 119 : cf;
 11A : 74;
 11B : d1;
 11C : fb;
 11D : d4;
 11E : d4;
 11F : c1;
 120 : 4a;
 121 : df;
 122 : b8;
 123 : db;
 124 : aa;
 125 : e1;
 126 : a9;
 127 : 00;
 128 : 85;
 129 : d7;
 12A : a9;
 12B : 92;
 12C : 85;
 12D : d0;
 12E : a9;
 12F : c4;
 130 : 85;
 131 : d1;
 132 : 20;
 133 : a7;
 134 : c2;
 135 : 20;
 136 : 8d;
 137 : c2;
 138 : a2;
 139 : 0f;
 13A : 20;
 13B : 61;
 13C : c2;
 13D : a5;
 13E : d5;
 13F : 4a;
 140 : 4a;
 141 : 4a;
 142 : b0;
 143 : 1c;
 144 : 4a;
 145 : b0;
 146 : 0c;
 147 : 4a;
 148 : b0;
 149 : 27;
 14A : 4a;
 14B : b0;
 14C : 03;
 14D : 4c;
 14E : 35;
 14F : c1;
 150 : 4c;
 151 : 72;
 152 : c0;
 153 : 20;
 154 : 6f;
 155 : c6;
 156 : c6;
 157 : d7;
 158 : 10;
 159 : db;
 15A : a9;
 15B : 0a;
 15C : 85;
 15D : d7;
 15E : d0;
 15F : d5;
 160 : 20;
 161 : 6f;
 162 : c6;
 163 : e6;
 164 : d7;
 165 : a5;
 166 : d7;
 167 : c9;
 168 : 0b;
 169 : 90;
 16A : ca;
 16B : a9;
 16C : 00;
 16D : 85;
 16E : d7;
 16F : f0;
 170 : c4;
 171 : 20;
 172 : 89;
 173 : c6;
 174 : a5;
 175 : d7;
 176 : f0;
 177 : 06;
 178 : 20;
 179 : a1;
 17A : c1;
 17B : 4c;
 17C : 35;
 17D : c1;
 17E : a9;
 17F : 00;
 180 : 85;
 181 : d8;
 182 : e6;
 183 : d7;
 184 : 20;
 185 : a1;
 186 : c1;
 187 : e6;
 188 : d7;
 189 : a5;
 18A : d7;
 18B : c9;
 18C : 0b;
 18D : d0;
 18E : f5;
 18F : a9;
 190 : 00;
 191 : 85;
 192 : d7;
 193 : a5;
 194 : d8;
 195 : f0;
 196 : 02;
 197 : a9;
 198 : ff;
 199 : 85;
 19A : 00;
 19B : 20;
 19C : ed;
 19D : c1;
 19E : 4c;
 19F : 35;
 1A0 : c1;
 1A1 : a5;
 1A2 : d7;
 1A3 : 0a;
 1A4 : aa;
 1A5 : bd;
 1A6 : be;
 1A7 : c1;
 1A8 : 8d;
 1A9 : 00;
 1AA : 02;
 1AB : bd;
 1AC : bf;
 1AD : c1;
 1AE : 8d;
 1AF : 01;
 1B0 : 02;
 1B1 : a9;
 1B2 : c1;
 1B3 : 48;
 1B4 : a9;
 1B5 : de;
 1B6 : 48;
 1B7 : a9;
 1B8 : 00;
 1B9 : 85;
 1BA : 00;
 1BB : 6c;
 1BC : 00;
 1BD : 02;
 1BE : a3;
 1BF : c6;
 1C0 : a3;
 1C1 : c6;
 1C2 : 1e;
 1C3 : e5;
 1C4 : 3d;
 1C5 : e7;
 1C6 : d3;
 1C7 : e8;
 1C8 : 16;
 1C9 : e9;
 1CA : 86;
 1CB : eb;
 1CC : f6;
 1CD : ed;
 1CE : 66;
 1CF : f0;
 1D0 : d6;
 1D1 : f2;
 1D2 : 46;
 1D3 : f5;
 1D4 : a9;
 1D5 : 00;
 1D6 : 85;
 1D7 : 00;
 1D8 : 20;
 1D9 : 00;
 1DA : d9;
 1DB : 20;
 1DC : e0;
 1DD : da;
 1DE : ea;
 1DF : ea;
 1E0 : ea;
 1E1 : a5;
 1E2 : 00;
 1E3 : f0;
 1E4 : 02;
 1E5 : 85;
 1E6 : d8;
 1E7 : 4c;
 1E8 : ed;
 1E9 : c1;
 1EA : 4c;
 1EB : 81;
 1EC : c0;
 1ED : 20;
 1EE : 8d;
 1EF : c2;
 1F0 : a9;
 1F1 : 00;
 1F2 : 85;
 1F3 : d3;
 1F4 : a5;
 1F5 : d7;
 1F6 : 18;
 1F7 : 69;
 1F8 : 04;
 1F9 : 0a;
 1FA : 26;
 1FB : d3;
 1FC : 0a;
 1FD : 26;
 1FE : d3;
 1FF : 0a;
 200 : 26;
 201 : d3;
 202 : 0a;
 203 : 26;
 204 : d3;
 205 : 0a;
 206 : 26;
 207 : d3;
 208 : 48;
 209 : a5;
 20A : d3;
 20B : 09;
 20C : 20;
 20D : 8d;
 20E : 06;
 20F : 20;
 210 : 68;
 211 : 09;
 212 : 04;
 213 : 8d;
 214 : 06;
 215 : 20;
 216 : a5;
 217 : 00;
 218 : f0;
 219 : 1d;
 21A : c9;
 21B : ff;
 21C : f0;
 21D : 26;
 21E : 4a;
 21F : 4a;
 220 : 4a;
 221 : 4a;
 222 : aa;
 223 : bd;
 224 : 51;
 225 : c2;
 226 : 8d;
 227 : 07;
 228 : 20;
 229 : a5;
 22A : 00;
 22B : 29;
 22C : 0f;
 22D : aa;
 22E : bd;
 22F : 51;
 230 : c2;
 231 : 8d;
 232 : 07;
 233 : 20;
 234 : 4c;
 235 : 94;
 236 : c2;
 237 : a9;
 238 : 4f;
 239 : 8d;
 23A : 07;
 23B : 20;
 23C : a9;
 23D : 4b;
 23E : 8d;
 23F : 07;
 240 : 20;
 241 : 4c;
 242 : 94;
 243 : c2;
 244 : a9;
 245 : 45;
 246 : 8d;
 247 : 07;
 248 : 20;
 249 : a9;
 24A : 72;
 24B : 8d;
 24C : 07;
 24D : 20;
 24E : 4c;
 24F : 94;
 250 : c2;
 251 : 30;
 252 : 31;
 253 : 32;
 254 : 33;
 255 : 34;
 256 : 35;
 257 : 36;
 258 : 37;
 259 : 38;
 25A : 39;
 25B : 41;
 25C : 42;
 25D : 43;
 25E : 44;
 25F : 45;
 260 : 46;
 261 : a5;
 262 : d7;
 263 : 18;
 264 : 69;
 265 : 04;
 266 : a8;
 267 : a9;
 268 : 84;
 269 : 8d;
 26A : 00;
 26B : 20;
 26C : a9;
 26D : 20;
 26E : 8d;
 26F : 06;
 270 : 20;
 271 : a9;
 272 : 02;
 273 : 8d;
 274 : 06;
 275 : 20;
 276 : a9;
 277 : 20;
 278 : 88;
 279 : c8;
 27A : d0;
 27B : 02;
 27C : a9;
 27D : 2a;
 27E : 8d;
 27F : 07;
 280 : 20;
 281 : 88;
 282 : ca;
 283 : d0;
 284 : f1;
 285 : a9;
 286 : 80;
 287 : 8d;
 288 : 00;
 289 : 20;
 28A : 4c;
 28B : 94;
 28C : c2;
 28D : a5;
 28E : d2;
 28F : c5;
 290 : d2;
 291 : f0;
 292 : fc;
 293 : 60;
 294 : a9;
 295 : 00;
 296 : 8d;
 297 : 05;
 298 : 20;
 299 : 8d;
 29A : 05;
 29B : 20;
 29C : a9;
 29D : 00;
 29E : 8d;
 29F : 06;
 2A0 : 20;
 2A1 : a9;
 2A2 : 00;
 2A3 : 8d;
 2A4 : 06;
 2A5 : 20;
 2A6 : 60;
 2A7 : a9;
 2A8 : 00;
 2A9 : 8d;
 2AA : 00;
 2AB : 20;
 2AC : 8d;
 2AD : 01;
 2AE : 20;
 2AF : 20;
 2B0 : ed;
 2B1 : c2;
 2B2 : a9;
 2B3 : 20;
 2B4 : 8d;
 2B5 : 06;
 2B6 : 20;
 2B7 : a0;
 2B8 : 00;
 2B9 : 8c;
 2BA : 06;
 2BB : 20;
 2BC : a2;
 2BD : 20;
 2BE : b1;
 2BF : d0;
 2C0 : f0;
 2C1 : 20;
 2C2 : c9;
 2C3 : ff;
 2C4 : f0;
 2C5 : 0d;
 2C6 : 8d;
 2C7 : 07;
 2C8 : 20;
 2C9 : c8;
 2CA : d0;
 2CB : 02;
 2CC : e6;
 2CD : d1;
 2CE : ca;
 2CF : d0;
 2D0 : ed;
 2D1 : f0;
 2D2 : e9;
 2D3 : c8;
 2D4 : d0;
 2D5 : 02;
 2D6 : e6;
 2D7 : d1;
 2D8 : a9;
 2D9 : 20;
 2DA : 8d;
 2DB : 07;
 2DC : 20;
 2DD : ca;
 2DE : d0;
 2DF : f8;
 2E0 : f0;
 2E1 : da;
 2E2 : a9;
 2E3 : 80;
 2E4 : 8d;
 2E5 : 00;
 2E6 : 20;
 2E7 : a9;
 2E8 : 0e;
 2E9 : 8d;
 2EA : 01;
 2EB : 20;
 2EC : 60;
 2ED : a9;
 2EE : 20;
 2EF : 8d;
 2F0 : 06;
 2F1 : 20;
 2F2 : a9;
 2F3 : 00;
 2F4 : 8d;
 2F5 : 06;
 2F6 : 20;
 2F7 : a2;
 2F8 : 1e;
 2F9 : a9;
 2FA : 20;
 2FB : a0;
 2FC : 20;
 2FD : 8d;
 2FE : 07;
 2FF : 20;
 300 : 88;
 301 : d0;
 302 : fa;
 303 : ca;
 304 : d0;
 305 : f5;
 306 : 60;
 307 : ff;
 308 : ff;
 309 : ff;
 30A : ff;
 30B : 20;
 30C : 20;
 30D : 20;
 30E : 20;
 30F : 2d;
 310 : 2d;
 311 : 20;
 312 : 52;
 313 : 75;
 314 : 6e;
 315 : 20;
 316 : 61;
 317 : 6c;
 318 : 6c;
 319 : 20;
 31A : 74;
 31B : 65;
 31C : 73;
 31D : 74;
 31E : 73;
 31F : ff;
 320 : 20;
 321 : 20;
 322 : 20;
 323 : 20;
 324 : 2d;
 325 : 2d;
 326 : 20;
 327 : 42;
 328 : 72;
 329 : 61;
 32A : 6e;
 32B : 63;
 32C : 68;
 32D : 20;
 32E : 74;
 32F : 65;
 330 : 73;
 331 : 74;
 332 : 73;
 333 : ff;
 334 : 20;
 335 : 20;
 336 : 20;
 337 : 20;
 338 : 2d;
 339 : 2d;
 33A : 20;
 33B : 46;
 33C : 6c;
 33D : 61;
 33E : 67;
 33F : 20;
 340 : 74;
 341 : 65;
 342 : 73;
 343 : 74;
 344 : 73;
 345 : ff;
 346 : 20;
 347 : 20;
 348 : 20;
 349 : 20;
 34A : 2d;
 34B : 2d;
 34C : 20;
 34D : 49;
 34E : 6d;
 34F : 6d;
 350 : 65;
 351 : 64;
 352 : 69;
 353 : 61;
 354 : 74;
 355 : 65;
 356 : 20;
 357 : 74;
 358 : 65;
 359 : 73;
 35A : 74;
 35B : 73;
 35C : ff;
 35D : 20;
 35E : 20;
 35F : 20;
 360 : 20;
 361 : 2d;
 362 : 2d;
 363 : 20;
 364 : 49;
 365 : 6d;
 366 : 70;
 367 : 6c;
 368 : 69;
 369 : 65;
 36A : 64;
 36B : 20;
 36C : 74;
 36D : 65;
 36E : 73;
 36F : 74;
 370 : 73;
 371 : ff;
 372 : 20;
 373 : 20;
 374 : 20;
 375 : 20;
 376 : 2d;
 377 : 2d;
 378 : 20;
 379 : 53;
 37A : 74;
 37B : 61;
 37C : 63;
 37D : 6b;
 37E : 20;
 37F : 74;
 380 : 65;
 381 : 73;
 382 : 74;
 383 : 73;
 384 : ff;
 385 : 20;
 386 : 20;
 387 : 20;
 388 : 20;
 389 : 2d;
 38A : 2d;
 38B : 20;
 38C : 41;
 38D : 63;
 38E : 63;
 38F : 75;
 390 : 6d;
 391 : 75;
 392 : 6c;
 393 : 61;
 394 : 74;
 395 : 6f;
 396 : 72;
 397 : 20;
 398 : 74;
 399 : 65;
 39A : 73;
 39B : 74;
 39C : 73;
 39D : ff;
 39E : 20;
 39F : 20;
 3A0 : 20;
 3A1 : 20;
 3A2 : 2d;
 3A3 : 2d;
 3A4 : 20;
 3A5 : 28;
 3A6 : 49;
 3A7 : 6e;
 3A8 : 64;
 3A9 : 69;
 3AA : 72;
 3AB : 65;
 3AC : 63;
 3AD : 74;
 3AE : 2c;
 3AF : 58;
 3B0 : 29;
 3B1 : 20;
 3B2 : 74;
 3B3 : 65;
 3B4 : 73;
 3B5 : 74;
 3B6 : 73;
 3B7 : ff;
 3B8 : 20;
 3B9 : 20;
 3BA : 20;
 3BB : 20;
 3BC : 2d;
 3BD : 2d;
 3BE : 20;
 3BF : 5a;
 3C0 : 65;
 3C1 : 72;
 3C2 : 6f;
 3C3 : 70;
 3C4 : 61;
 3C5 : 67;
 3C6 : 65;
 3C7 : 20;
 3C8 : 74;
 3C9 : 65;
 3CA : 73;
 3CB : 74;
 3CC : 73;
 3CD : ff;
 3CE : 20;
 3CF : 20;
 3D0 : 20;
 3D1 : 20;
 3D2 : 2d;
 3D3 : 2d;
 3D4 : 20;
 3D5 : 41;
 3D6 : 62;
 3D7 : 73;
 3D8 : 6f;
 3D9 : 6c;
 3DA : 75;
 3DB : 74;
 3DC : 65;
 3DD : 20;
 3DE : 74;
 3DF : 65;
 3E0 : 73;
 3E1 : 74;
 3E2 : 73;
 3E3 : ff;
 3E4 : 20;
 3E5 : 20;
 3E6 : 20;
 3E7 : 20;
 3E8 : 2d;
 3E9 : 2d;
 3EA : 20;
 3EB : 28;
 3EC : 49;
 3ED : 6e;
 3EE : 64;
 3EF : 69;
 3F0 : 72;
 3F1 : 65;
 3F2 : 63;
 3F3 : 74;
 3F4 : 29;
 3F5 : 2c;
 3F6 : 59;
 3F7 : 20;
 3F8 : 74;
 3F9 : 65;
 3FA : 73;
 3FB : 74;
 3FC : 73;
 3FD : ff;
 3FE : 20;
 3FF : 20;
 400 : 20;
 401 : 20;
 402 : 2d;
 403 : 2d;
 404 : 20;
 405 : 41;
 406 : 62;
 407 : 73;
 408 : 6f;
 409 : 6c;
 40A : 75;
 40B : 74;
 40C : 65;
 40D : 2c;
 40E : 59;
 40F : 20;
 410 : 74;
 411 : 65;
 412 : 73;
 413 : 74;
 414 : 73;
 415 : ff;
 416 : 20;
 417 : 20;
 418 : 20;
 419 : 20;
 41A : 2d;
 41B : 2d;
 41C : 20;
 41D : 5a;
 41E : 65;
 41F : 72;
 420 : 6f;
 421 : 70;
 422 : 61;
 423 : 67;
 424 : 65;
 425 : 2c;
 426 : 58;
 427 : 20;
 428 : 74;
 429 : 65;
 42A : 73;
 42B : 74;
 42C : 73;
 42D : ff;
 42E : 20;
 42F : 20;
 430 : 20;
 431 : 20;
 432 : 2d;
 433 : 2d;
 434 : 20;
 435 : 41;
 436 : 62;
 437 : 73;
 438 : 6f;
 439 : 6c;
 43A : 75;
 43B : 74;
 43C : 65;
 43D : 2c;
 43E : 58;
 43F : 20;
 440 : 74;
 441 : 65;
 442 : 73;
 443 : 74;
 444 : 73;
 445 : ff;
 446 : ff;
 447 : ff;
 448 : 20;
 449 : 20;
 44A : 20;
 44B : 20;
 44C : 55;
 44D : 70;
 44E : 2f;
 44F : 44;
 450 : 6f;
 451 : 77;
 452 : 6e;
 453 : 3a;
 454 : 20;
 455 : 73;
 456 : 65;
 457 : 6c;
 458 : 65;
 459 : 63;
 45A : 74;
 45B : 20;
 45C : 74;
 45D : 65;
 45E : 73;
 45F : 74;
 460 : ff;
 461 : 20;
 462 : 20;
 463 : 20;
 464 : 20;
 465 : 20;
 466 : 20;
 467 : 53;
 468 : 74;
 469 : 61;
 46A : 72;
 46B : 74;
 46C : 3a;
 46D : 20;
 46E : 72;
 46F : 75;
 470 : 6e;
 471 : 20;
 472 : 74;
 473 : 65;
 474 : 73;
 475 : 74;
 476 : ff;
 477 : 20;
 478 : 20;
 479 : 20;
 47A : 20;
 47B : 20;
 47C : 53;
 47D : 65;
 47E : 6c;
 47F : 65;
 480 : 63;
 481 : 74;
 482 : 3a;
 483 : 20;
 484 : 49;
 485 : 6e;
 486 : 76;
 487 : 61;
 488 : 6c;
 489 : 69;
 48A : 64;
 48B : 20;
 48C : 6f;
 48D : 70;
 48E : 73;
 48F : 21;
 490 : ff;
 491 : 00;
 492 : ff;
 493 : ff;
 494 : ff;
 495 : ff;
 496 : 20;
 497 : 20;
 498 : 20;
 499 : 20;
 49A : 2d;
 49B : 2d;
 49C : 20;
 49D : 52;
 49E : 75;
 49F : 6e;
 4A0 : 20;
 4A1 : 61;
 4A2 : 6c;
 4A3 : 6c;
 4A4 : 20;
 4A5 : 74;
 4A6 : 65;
 4A7 : 73;
 4A8 : 74;
 4A9 : 73;
 4AA : ff;
 4AB : 20;
 4AC : 20;
 4AD : 20;
 4AE : 20;
 4AF : 2d;
 4B0 : 2d;
 4B1 : 20;
 4B2 : 4e;
 4B3 : 4f;
 4B4 : 50;
 4B5 : 20;
 4B6 : 74;
 4B7 : 65;
 4B8 : 73;
 4B9 : 74;
 4BA : 73;
 4BB : ff;
 4BC : 20;
 4BD : 20;
 4BE : 20;
 4BF : 20;
 4C0 : 2d;
 4C1 : 2d;
 4C2 : 20;
 4C3 : 4c;
 4C4 : 41;
 4C5 : 58;
 4C6 : 20;
 4C7 : 74;
 4C8 : 65;
 4C9 : 73;
 4CA : 74;
 4CB : 73;
 4CC : ff;
 4CD : 20;
 4CE : 20;
 4CF : 20;
 4D0 : 20;
 4D1 : 2d;
 4D2 : 2d;
 4D3 : 20;
 4D4 : 53;
 4D5 : 41;
 4D6 : 58;
 4D7 : 20;
 4D8 : 74;
 4D9 : 65;
 4DA : 73;
 4DB : 74;
 4DC : 73;
 4DD : ff;
 4DE : 20;
 4DF : 20;
 4E0 : 20;
 4E1 : 20;
 4E2 : 2d;
 4E3 : 2d;
 4E4 : 20;
 4E5 : 53;
 4E6 : 42;
 4E7 : 43;
 4E8 : 20;
 4E9 : 74;
 4EA : 65;
 4EB : 73;
 4EC : 74;
 4ED : 20;
 4EE : 28;
 4EF : 6f;
 4F0 : 70;
 4F1 : 63;
 4F2 : 6f;
 4F3 : 64;
 4F4 : 65;
 4F5 : 20;
 4F6 : 30;
 4F7 : 45;
 4F8 : 42;
 4F9 : 68;
 4FA : 29;
 4FB : ff;
 4FC : 20;
 4FD : 20;
 4FE : 20;
 4FF : 20;
 500 : 2d;
 501 : 2d;
 502 : 20;
 503 : 44;
 504 : 43;
 505 : 50;
 506 : 20;
 507 : 74;
 508 : 65;
 509 : 73;
 50A : 74;
 50B : 73;
 50C : ff;
 50D : 20;
 50E : 20;
 50F : 20;
 510 : 20;
 511 : 2d;
 512 : 2d;
 513 : 20;
 514 : 49;
 515 : 53;
 516 : 42;
 517 : 20;
 518 : 74;
 519 : 65;
 51A : 73;
 51B : 74;
 51C : 73;
 51D : ff;
 51E : 20;
 51F : 20;
 520 : 20;
 521 : 20;
 522 : 2d;
 523 : 2d;
 524 : 20;
 525 : 53;
 526 : 4c;
 527 : 4f;
 528 : 20;
 529 : 74;
 52A : 65;
 52B : 73;
 52C : 74;
 52D : 73;
 52E : ff;
 52F : 20;
 530 : 20;
 531 : 20;
 532 : 20;
 533 : 2d;
 534 : 2d;
 535 : 20;
 536 : 52;
 537 : 4c;
 538 : 41;
 539 : 20;
 53A : 74;
 53B : 65;
 53C : 73;
 53D : 74;
 53E : 73;
 53F : ff;
 540 : 20;
 541 : 20;
 542 : 20;
 543 : 20;
 544 : 2d;
 545 : 2d;
 546 : 20;
 547 : 53;
 548 : 52;
 549 : 45;
 54A : 20;
 54B : 74;
 54C : 65;
 54D : 73;
 54E : 74;
 54F : 73;
 550 : ff;
 551 : 20;
 552 : 20;
 553 : 20;
 554 : 20;
 555 : 2d;
 556 : 2d;
 557 : 20;
 558 : 52;
 559 : 52;
 55A : 41;
 55B : 20;
 55C : 74;
 55D : 65;
 55E : 73;
 55F : 74;
 560 : 73;
 561 : ff;
 562 : ff;
 563 : ff;
 564 : ff;
 565 : ff;
 566 : ff;
 567 : 20;
 568 : 20;
 569 : 20;
 56A : 20;
 56B : 55;
 56C : 70;
 56D : 2f;
 56E : 44;
 56F : 6f;
 570 : 77;
 571 : 6e;
 572 : 3a;
 573 : 20;
 574 : 73;
 575 : 65;
 576 : 6c;
 577 : 65;
 578 : 63;
 579 : 74;
 57A : 20;
 57B : 74;
 57C : 65;
 57D : 73;
 57E : 74;
 57F : ff;
 580 : 20;
 581 : 20;
 582 : 20;
 583 : 20;
 584 : 20;
 585 : 20;
 586 : 53;
 587 : 74;
 588 : 61;
 589 : 72;
 58A : 74;
 58B : 3a;
 58C : 20;
 58D : 72;
 58E : 75;
 58F : 6e;
 590 : 20;
 591 : 74;
 592 : 65;
 593 : 73;
 594 : 74;
 595 : ff;
 596 : 20;
 597 : 20;
 598 : 20;
 599 : 20;
 59A : 20;
 59B : 53;
 59C : 65;
 59D : 6c;
 59E : 65;
 59F : 63;
 5A0 : 74;
 5A1 : 3a;
 5A2 : 20;
 5A3 : 4e;
 5A4 : 6f;
 5A5 : 72;
 5A6 : 6d;
 5A7 : 61;
 5A8 : 6c;
 5A9 : 20;
 5AA : 6f;
 5AB : 70;
 5AC : 73;
 5AD : ff;
 5AE : 00;
 5AF : 48;
 5B0 : 8a;
 5B1 : 48;
 5B2 : ad;
 5B3 : 02;
 5B4 : 20;
 5B5 : a9;
 5B6 : 20;
 5B7 : 8d;
 5B8 : 06;
 5B9 : 20;
 5BA : a9;
 5BB : 40;
 5BC : 8d;
 5BD : 06;
 5BE : 20;
 5BF : e6;
 5C0 : d2;
 5C1 : a9;
 5C2 : 00;
 5C3 : 8d;
 5C4 : 05;
 5C5 : 20;
 5C6 : 8d;
 5C7 : 05;
 5C8 : 20;
 5C9 : a9;
 5CA : 00;
 5CB : 8d;
 5CC : 06;
 5CD : 20;
 5CE : a9;
 5CF : 00;
 5D0 : 8d;
 5D1 : 06;
 5D2 : 20;
 5D3 : a2;
 5D4 : 09;
 5D5 : 8e;
 5D6 : 16;
 5D7 : 40;
 5D8 : ca;
 5D9 : 8e;
 5DA : 16;
 5DB : 40;
 5DC : ad;
 5DD : 16;
 5DE : 40;
 5DF : 4a;
 5E0 : 26;
 5E1 : d4;
 5E2 : ca;
 5E3 : d0;
 5E4 : f7;
 5E5 : a5;
 5E6 : d4;
 5E7 : aa;
 5E8 : 45;
 5E9 : d6;
 5EA : 25;
 5EB : d4;
 5EC : 85;
 5ED : d5;
 5EE : 86;
 5EF : d6;
 5F0 : 68;
 5F1 : aa;
 5F2 : 68;
 5F3 : 40;
 5F4 : 40;
 5F5 : a2;
 5F6 : 00;
 5F7 : 86;
 5F8 : 00;
 5F9 : 86;
 5FA : 10;
 5FB : 86;
 5FC : 11;
 5FD : 20;
 5FE : 2d;
 5FF : c7;
 600 : 20;
 601 : db;
 602 : c7;
 603 : 20;
 604 : 85;
 605 : c8;
 606 : 20;
 607 : de;
 608 : cb;
 609 : 20;
 60A : f8;
 60B : cd;
 60C : 20;
 60D : ee;
 60E : ce;
 60F : 20;
 610 : a2;
 611 : cf;
 612 : 20;
 613 : 74;
 614 : d1;
 615 : 20;
 616 : fb;
 617 : d4;
 618 : 20;
 619 : 00;
 61A : d9;
 61B : a5;
 61C : 00;
 61D : 85;
 61E : 10;
 61F : a9;
 620 : 00;
 621 : 85;
 622 : 00;
 623 : 20;
 624 : e0;
 625 : da;
 626 : 20;
 627 : 4a;
 628 : df;
 629 : 20;
 62A : b8;
 62B : db;
 62C : 20;
 62D : aa;
 62E : e1;
 62F : 20;
 630 : a3;
 631 : c6;
 632 : 20;
 633 : 1e;
 634 : e5;
 635 : 20;
 636 : 3d;
 637 : e7;
 638 : 20;
 639 : d3;
 63A : e8;
 63B : 20;
 63C : 16;
 63D : e9;
 63E : 20;
 63F : 86;
 640 : eb;
 641 : 20;
 642 : f6;
 643 : ed;
 644 : 20;
 645 : 66;
 646 : f0;
 647 : 20;
 648 : d6;
 649 : f2;
 64A : a5;
 64B : 00;
 64C : 85;
 64D : 11;
 64E : a9;
 64F : 00;
 650 : 85;
 651 : 00;
 652 : 20;
 653 : 46;
 654 : f5;
 655 : a5;
 656 : 00;
 657 : 05;
 658 : 10;
 659 : 05;
 65A : 11;
 65B : f0;
 65C : 0e;
 65D : 20;
 65E : 6f;
 65F : c6;
 660 : a6;
 661 : 00;
 662 : 86;
 663 : 02;
 664 : a6;
 665 : 10;
 666 : 86;
 667 : 03;
 668 : 4c;
 669 : 6e;
 66A : c6;
 66B : 20;
 66C : 89;
 66D : c6;
 66E : 60;
 66F : a9;
 670 : 03;
 671 : 8d;
 672 : 15;
 673 : 40;
 674 : a9;
 675 : 87;
 676 : 8d;
 677 : 00;
 678 : 40;
 679 : a9;
 67A : 89;
 67B : 8d;
 67C : 01;
 67D : 40;
 67E : a9;
 67F : f0;
 680 : 8d;
 681 : 02;
 682 : 40;
 683 : a9;
 684 : 00;
 685 : 8d;
 686 : 03;
 687 : 40;
 688 : 60;
 689 : a9;
 68A : 02;
 68B : 8d;
 68C : 15;
 68D : 40;
 68E : a9;
 68F : 3f;
 690 : 8d;
 691 : 04;
 692 : 40;
 693 : a9;
 694 : 9a;
 695 : 8d;
 696 : 05;
 697 : 40;
 698 : a9;
 699 : ff;
 69A : 8d;
 69B : 06;
 69C : 40;
 69D : a9;
 69E : 00;
 69F : 8d;
 6A0 : 07;
 6A1 : 40;
 6A2 : 60;
 6A3 : a0;
 6A4 : 4e;
 6A5 : a9;
 6A6 : ff;
 6A7 : 85;
 6A8 : 01;
 6A9 : 20;
 6AA : b0;
 6AB : c6;
 6AC : 20;
 6AD : b7;
 6AE : c6;
 6AF : 60;
 6B0 : a9;
 6B1 : ff;
 6B2 : 48;
 6B3 : a9;
 6B4 : aa;
 6B5 : d0;
 6B6 : 05;
 6B7 : a9;
 6B8 : 34;
 6B9 : 48;
 6BA : a9;
 6BB : 55;
 6BC : 28;
 6BD : 04;
 6BE : a9;
 6BF : 44;
 6C0 : a9;
 6C1 : 64;
 6C2 : a9;
 6C3 : ea;
 6C4 : ea;
 6C5 : ea;
 6C6 : ea;
 6C7 : 08;
 6C8 : 48;
 6C9 : 0c;
 6CA : a9;
 6CB : a9;
 6CC : ea;
 6CD : ea;
 6CE : ea;
 6CF : ea;
 6D0 : 08;
 6D1 : 48;
 6D2 : 14;
 6D3 : a9;
 6D4 : 34;
 6D5 : a9;
 6D6 : 54;
 6D7 : a9;
 6D8 : 74;
 6D9 : a9;
 6DA : d4;
 6DB : a9;
 6DC : f4;
 6DD : a9;
 6DE : ea;
 6DF : ea;
 6E0 : ea;
 6E1 : ea;
 6E2 : 08;
 6E3 : 48;
 6E4 : 1a;
 6E5 : 3a;
 6E6 : 5a;
 6E7 : 7a;
 6E8 : da;
 6E9 : fa;
 6EA : 80;
 6EB : 89;
 6EC : ea;
 6ED : ea;
 6EE : ea;
 6EF : ea;
 6F0 : 08;
 6F1 : 48;
 6F2 : 1c;
 6F3 : a9;
 6F4 : a9;
 6F5 : 3c;
 6F6 : a9;
 6F7 : a9;
 6F8 : 5c;
 6F9 : a9;
 6FA : a9;
 6FB : 7c;
 6FC : a9;
 6FD : a9;
 6FE : dc;
 6FF : a9;
 700 : a9;
 701 : fc;
 702 : a9;
 703 : a9;
 704 : ea;
 705 : ea;
 706 : ea;
 707 : ea;
 708 : 08;
 709 : 48;
 70A : a2;
 70B : 05;
 70C : 68;
 70D : c9;
 70E : 55;
 70F : f0;
 710 : 0a;
 711 : c9;
 712 : aa;
 713 : f0;
 714 : 06;
 715 : 68;
 716 : 84;
 717 : 00;
 718 : 4c;
 719 : 28;
 71A : c7;
 71B : 68;
 71C : 29;
 71D : cb;
 71E : c9;
 71F : 00;
 720 : f0;
 721 : 06;
 722 : c9;
 723 : cb;
 724 : f0;
 725 : 02;
 726 : 84;
 727 : 00;
 728 : c8;
 729 : ca;
 72A : d0;
 72B : e0;
 72C : 60;
 72D : ea;
 72E : 38;
 72F : b0;
 730 : 04;
 731 : a2;
 732 : 01;
 733 : 86;
 734 : 00;
 735 : ea;
 736 : 18;
 737 : b0;
 738 : 03;
 739 : 4c;
 73A : 40;
 73B : c7;
 73C : a2;
 73D : 02;
 73E : 86;
 73F : 00;
 740 : ea;
 741 : 38;
 742 : 90;
 743 : 03;
 744 : 4c;
 745 : 4b;
 746 : c7;
 747 : a2;
 748 : 03;
 749 : 86;
 74A : 00;
 74B : ea;
 74C : 18;
 74D : 90;
 74E : 04;
 74F : a2;
 750 : 04;
 751 : 86;
 752 : 00;
 753 : ea;
 754 : a9;
 755 : 00;
 756 : f0;
 757 : 04;
 758 : a2;
 759 : 05;
 75A : 86;
 75B : 00;
 75C : ea;
 75D : a9;
 75E : 40;
 75F : f0;
 760 : 03;
 761 : 4c;
 762 : 68;
 763 : c7;
 764 : a2;
 765 : 06;
 766 : 86;
 767 : 00;
 768 : ea;
 769 : a9;
 76A : 40;
 76B : d0;
 76C : 04;
 76D : a2;
 76E : 07;
 76F : 86;
 770 : 00;
 771 : ea;
 772 : a9;
 773 : 00;
 774 : d0;
 775 : 03;
 776 : 4c;
 777 : 7d;
 778 : c7;
 779 : a2;
 77A : 08;
 77B : 86;
 77C : 00;
 77D : ea;
 77E : a9;
 77F : ff;
 780 : 85;
 781 : 01;
 782 : 24;
 783 : 01;
 784 : 70;
 785 : 04;
 786 : a2;
 787 : 09;
 788 : 86;
 789 : 00;
 78A : ea;
 78B : 24;
 78C : 01;
 78D : 50;
 78E : 03;
 78F : 4c;
 790 : 96;
 791 : c7;
 792 : a2;
 793 : 0a;
 794 : 86;
 795 : 00;
 796 : ea;
 797 : a9;
 798 : 00;
 799 : 85;
 79A : 01;
 79B : 24;
 79C : 01;
 79D : 50;
 79E : 04;
 79F : a2;
 7A0 : 0b;
 7A1 : 86;
 7A2 : 00;
 7A3 : ea;
 7A4 : 24;
 7A5 : 01;
 7A6 : 70;
 7A7 : 03;
 7A8 : 4c;
 7A9 : af;
 7AA : c7;
 7AB : a2;
 7AC : 0c;
 7AD : 86;
 7AE : 00;
 7AF : ea;
 7B0 : a9;
 7B1 : 00;
 7B2 : 10;
 7B3 : 04;
 7B4 : a2;
 7B5 : 0d;
 7B6 : 86;
 7B7 : 00;
 7B8 : ea;
 7B9 : a9;
 7BA : 80;
 7BB : 10;
 7BC : 03;
 7BD : 4c;
 7BE : d9;
 7BF : c7;
 7C0 : a2;
 7C1 : 0e;
 7C2 : 86;
 7C3 : 00;
 7C4 : ea;
 7C5 : a9;
 7C6 : 80;
 7C7 : 30;
 7C8 : 04;
 7C9 : a2;
 7CA : 0f;
 7CB : 86;
 7CC : 00;
 7CD : ea;
 7CE : a9;
 7CF : 00;
 7D0 : 30;
 7D1 : 03;
 7D2 : 4c;
 7D3 : d9;
 7D4 : c7;
 7D5 : a2;
 7D6 : 10;
 7D7 : 86;
 7D8 : 00;
 7D9 : ea;
 7DA : 60;
 7DB : ea;
 7DC : a9;
 7DD : ff;
 7DE : 85;
 7DF : 01;
 7E0 : 24;
 7E1 : 01;
 7E2 : a9;
 7E3 : 00;
 7E4 : 38;
 7E5 : 78;
 7E6 : f8;
 7E7 : 08;
 7E8 : 68;
 7E9 : 29;
 7EA : ef;
 7EB : c9;
 7EC : 6f;
 7ED : f0;
 7EE : 04;
 7EF : a2;
 7F0 : 11;
 7F1 : 86;
 7F2 : 00;
 7F3 : ea;
 7F4 : a9;
 7F5 : 40;
 7F6 : 85;
 7F7 : 01;
 7F8 : 24;
 7F9 : 01;
 7FA : d8;
 7FB : a9;
 7FC : 10;
 7FD : 18;
 7FE : 08;
 7FF : 68;
 800 : 29;
 801 : ef;
 802 : c9;
 803 : 64;
 804 : f0;
 805 : 04;
 806 : a2;
 807 : 12;
 808 : 86;
 809 : 00;
 80A : ea;
 80B : a9;
 80C : 80;
 80D : 85;
 80E : 01;
 80F : 24;
 810 : 01;
 811 : f8;
 812 : a9;
 813 : 00;
 814 : 38;
 815 : 08;
 816 : 68;
 817 : 29;
 818 : ef;
 819 : c9;
 81A : 2f;
 81B : f0;
 81C : 04;
 81D : a2;
 81E : 13;
 81F : 86;
 820 : 00;
 821 : ea;
 822 : a9;
 823 : ff;
 824 : 48;
 825 : 28;
 826 : d0;
 827 : 09;
 828 : 10;
 829 : 07;
 82A : 50;
 82B : 05;
 82C : 90;
 82D : 03;
 82E : 4c;
 82F : 35;
 830 : c8;
 831 : a2;
 832 : 14;
 833 : 86;
 834 : 00;
 835 : ea;
 836 : a9;
 837 : 04;
 838 : 48;
 839 : 28;
 83A : f0;
 83B : 09;
 83C : 30;
 83D : 07;
 83E : 70;
 83F : 05;
 840 : b0;
 841 : 03;
 842 : 4c;
 843 : 49;
 844 : c8;
 845 : a2;
 846 : 15;
 847 : 86;
 848 : 00;
 849 : ea;
 84A : f8;
 84B : a9;
 84C : ff;
 84D : 85;
 84E : 01;
 84F : 24;
 850 : 01;
 851 : 18;
 852 : a9;
 853 : 00;
 854 : 48;
 855 : a9;
 856 : ff;
 857 : 68;
 858 : d0;
 859 : 09;
 85A : 30;
 85B : 07;
 85C : 50;
 85D : 05;
 85E : b0;
 85F : 03;
 860 : 4c;
 861 : 67;
 862 : c8;
 863 : a2;
 864 : 16;
 865 : 86;
 866 : 00;
 867 : ea;
 868 : a9;
 869 : 00;
 86A : 85;
 86B : 01;
 86C : 24;
 86D : 01;
 86E : 38;
 86F : a9;
 870 : ff;
 871 : 48;
 872 : a9;
 873 : 00;
 874 : 68;
 875 : f0;
 876 : 09;
 877 : 10;
 878 : 07;
 879 : 70;
 87A : 05;
 87B : 90;
 87C : 03;
 87D : 4c;
 87E : 84;
 87F : c8;
 880 : a2;
 881 : 17;
 882 : 86;
 883 : 00;
 884 : 60;
 885 : ea;
 886 : 18;
 887 : a9;
 888 : ff;
 889 : 85;
 88A : 01;
 88B : 24;
 88C : 01;
 88D : a9;
 88E : 55;
 88F : 09;
 890 : aa;
 891 : b0;
 892 : 0b;
 893 : 10;
 894 : 09;
 895 : c9;
 896 : ff;
 897 : d0;
 898 : 05;
 899 : 50;
 89A : 03;
 89B : 4c;
 89C : a2;
 89D : c8;
 89E : a2;
 89F : 18;
 8A0 : 86;
 8A1 : 00;
 8A2 : ea;
 8A3 : 38;
 8A4 : b8;
 8A5 : a9;
 8A6 : 00;
 8A7 : 09;
 8A8 : 00;
 8A9 : d0;
 8AA : 09;
 8AB : 70;
 8AC : 07;
 8AD : 90;
 8AE : 05;
 8AF : 30;
 8B0 : 03;
 8B1 : 4c;
 8B2 : b8;
 8B3 : c8;
 8B4 : a2;
 8B5 : 19;
 8B6 : 86;
 8B7 : 00;
 8B8 : ea;
 8B9 : 18;
 8BA : 24;
 8BB : 01;
 8BC : a9;
 8BD : 55;
 8BE : 29;
 8BF : aa;
 8C0 : d0;
 8C1 : 09;
 8C2 : 50;
 8C3 : 07;
 8C4 : b0;
 8C5 : 05;
 8C6 : 30;
 8C7 : 03;
 8C8 : 4c;
 8C9 : cf;
 8CA : c8;
 8CB : a2;
 8CC : 1a;
 8CD : 86;
 8CE : 00;
 8CF : ea;
 8D0 : 38;
 8D1 : b8;
 8D2 : a9;
 8D3 : f8;
 8D4 : 29;
 8D5 : ef;
 8D6 : 90;
 8D7 : 0b;
 8D8 : 10;
 8D9 : 09;
 8DA : c9;
 8DB : e8;
 8DC : d0;
 8DD : 05;
 8DE : 70;
 8DF : 03;
 8E0 : 4c;
 8E1 : e7;
 8E2 : c8;
 8E3 : a2;
 8E4 : 1b;
 8E5 : 86;
 8E6 : 00;
 8E7 : ea;
 8E8 : 18;
 8E9 : 24;
 8EA : 01;
 8EB : a9;
 8EC : 5f;
 8ED : 49;
 8EE : aa;
 8EF : b0;
 8F0 : 0b;
 8F1 : 10;
 8F2 : 09;
 8F3 : c9;
 8F4 : f5;
 8F5 : d0;
 8F6 : 05;
 8F7 : 50;
 8F8 : 03;
 8F9 : 4c;
 8FA : 00;
 8FB : c9;
 8FC : a2;
 8FD : 1c;
 8FE : 86;
 8FF : 00;
 900 : ea;
 901 : 38;
 902 : b8;
 903 : a9;
 904 : 70;
 905 : 49;
 906 : 70;
 907 : d0;
 908 : 09;
 909 : 70;
 90A : 07;
 90B : 90;
 90C : 05;
 90D : 30;
 90E : 03;
 90F : 4c;
 910 : 16;
 911 : c9;
 912 : a2;
 913 : 1d;
 914 : 86;
 915 : 00;
 916 : ea;
 917 : 18;
 918 : 24;
 919 : 01;
 91A : a9;
 91B : 00;
 91C : 69;
 91D : 69;
 91E : 30;
 91F : 0b;
 920 : b0;
 921 : 09;
 922 : c9;
 923 : 69;
 924 : d0;
 925 : 05;
 926 : 70;
 927 : 03;
 928 : 4c;
 929 : 2f;
 92A : c9;
 92B : a2;
 92C : 1e;
 92D : 86;
 92E : 00;
 92F : ea;
 930 : 38;
 931 : f8;
 932 : 24;
 933 : 01;
 934 : a9;
 935 : 01;
 936 : 69;
 937 : 69;
 938 : 30;
 939 : 0b;
 93A : b0;
 93B : 09;
 93C : c9;
 93D : 6b;
 93E : d0;
 93F : 05;
 940 : 70;
 941 : 03;
 942 : 4c;
 943 : 49;
 944 : c9;
 945 : a2;
 946 : 1f;
 947 : 86;
 948 : 00;
 949 : ea;
 94A : d8;
 94B : 38;
 94C : b8;
 94D : a9;
 94E : 7f;
 94F : 69;
 950 : 7f;
 951 : 10;
 952 : 0b;
 953 : b0;
 954 : 09;
 955 : c9;
 956 : ff;
 957 : d0;
 958 : 05;
 959 : 50;
 95A : 03;
 95B : 4c;
 95C : 62;
 95D : c9;
 95E : a2;
 95F : 20;
 960 : 86;
 961 : 00;
 962 : ea;
 963 : 18;
 964 : 24;
 965 : 01;
 966 : a9;
 967 : 7f;
 968 : 69;
 969 : 80;
 96A : 10;
 96B : 0b;
 96C : b0;
 96D : 09;
 96E : c9;
 96F : ff;
 970 : d0;
 971 : 05;
 972 : 70;
 973 : 03;
 974 : 4c;
 975 : 7b;
 976 : c9;
 977 : a2;
 978 : 21;
 979 : 86;
 97A : 00;
 97B : ea;
 97C : 38;
 97D : b8;
 97E : a9;
 97F : 7f;
 980 : 69;
 981 : 80;
 982 : d0;
 983 : 09;
 984 : 30;
 985 : 07;
 986 : 70;
 987 : 05;
 988 : 90;
 989 : 03;
 98A : 4c;
 98B : 91;
 98C : c9;
 98D : a2;
 98E : 22;
 98F : 86;
 990 : 00;
 991 : ea;
 992 : 38;
 993 : b8;
 994 : a9;
 995 : 9f;
 996 : f0;
 997 : 09;
 998 : 10;
 999 : 07;
 99A : 70;
 99B : 05;
 99C : 90;
 99D : 03;
 99E : 4c;
 99F : a5;
 9A0 : c9;
 9A1 : a2;
 9A2 : 23;
 9A3 : 86;
 9A4 : 00;
 9A5 : ea;
 9A6 : 18;
 9A7 : 24;
 9A8 : 01;
 9A9 : a9;
 9AA : 00;
 9AB : d0;
 9AC : 09;
 9AD : 30;
 9AE : 07;
 9AF : 50;
 9B0 : 05;
 9B1 : b0;
 9B2 : 03;
 9B3 : 4c;
 9B4 : ba;
 9B5 : c9;
 9B6 : a2;
 9B7 : 23;
 9B8 : 86;
 9B9 : 00;
 9BA : ea;
 9BB : 24;
 9BC : 01;
 9BD : a9;
 9BE : 40;
 9BF : c9;
 9C0 : 40;
 9C1 : 30;
 9C2 : 09;
 9C3 : 90;
 9C4 : 07;
 9C5 : d0;
 9C6 : 05;
 9C7 : 50;
 9C8 : 03;
 9C9 : 4c;
 9CA : d0;
 9CB : c9;
 9CC : a2;
 9CD : 24;
 9CE : 86;
 9CF : 00;
 9D0 : ea;
 9D1 : b8;
 9D2 : c9;
 9D3 : 3f;
 9D4 : f0;
 9D5 : 09;
 9D6 : 30;
 9D7 : 07;
 9D8 : 90;
 9D9 : 05;
 9DA : 70;
 9DB : 03;
 9DC : 4c;
 9DD : e3;
 9DE : c9;
 9DF : a2;
 9E0 : 25;
 9E1 : 86;
 9E2 : 00;
 9E3 : ea;
 9E4 : c9;
 9E5 : 41;
 9E6 : f0;
 9E7 : 07;
 9E8 : 10;
 9E9 : 05;
 9EA : 10;
 9EB : 03;
 9EC : 4c;
 9ED : f3;
 9EE : c9;
 9EF : a2;
 9F0 : 26;
 9F1 : 86;
 9F2 : 00;
 9F3 : ea;
 9F4 : a9;
 9F5 : 80;
 9F6 : c9;
 9F7 : 00;
 9F8 : f0;
 9F9 : 07;
 9FA : 10;
 9FB : 05;
 9FC : 90;
 9FD : 03;
 9FE : 4c;
 9FF : 05;
 A00 : ca;
 A01 : a2;
 A02 : 27;
 A03 : 86;
 A04 : 00;
 A05 : ea;
 A06 : c9;
 A07 : 80;
 A08 : d0;
 A09 : 07;
 A0A : 30;
 A0B : 05;
 A0C : 90;
 A0D : 03;
 A0E : 4c;
 A0F : 15;
 A10 : ca;
 A11 : a2;
 A12 : 28;
 A13 : 86;
 A14 : 00;
 A15 : ea;
 A16 : c9;
 A17 : 81;
 A18 : b0;
 A19 : 07;
 A1A : f0;
 A1B : 05;
 A1C : 10;
 A1D : 03;
 A1E : 4c;
 A1F : 25;
 A20 : ca;
 A21 : a2;
 A22 : 29;
 A23 : 86;
 A24 : 00;
 A25 : ea;
 A26 : c9;
 A27 : 7f;
 A28 : 90;
 A29 : 07;
 A2A : f0;
 A2B : 05;
 A2C : 30;
 A2D : 03;
 A2E : 4c;
 A2F : 35;
 A30 : ca;
 A31 : a2;
 A32 : 2a;
 A33 : 86;
 A34 : 00;
 A35 : ea;
 A36 : 24;
 A37 : 01;
 A38 : a0;
 A39 : 40;
 A3A : c0;
 A3B : 40;
 A3C : d0;
 A3D : 09;
 A3E : 30;
 A3F : 07;
 A40 : 90;
 A41 : 05;
 A42 : 50;
 A43 : 03;
 A44 : 4c;
 A45 : 4b;
 A46 : ca;
 A47 : a2;
 A48 : 2b;
 A49 : 86;
 A4A : 00;
 A4B : ea;
 A4C : b8;
 A4D : c0;
 A4E : 3f;
 A4F : f0;
 A50 : 09;
 A51 : 30;
 A52 : 07;
 A53 : 90;
 A54 : 05;
 A55 : 70;
 A56 : 03;
 A57 : 4c;
 A58 : 5e;
 A59 : ca;
 A5A : a2;
 A5B : 2c;
 A5C : 86;
 A5D : 00;
 A5E : ea;
 A5F : c0;
 A60 : 41;
 A61 : f0;
 A62 : 07;
 A63 : 10;
 A64 : 05;
 A65 : 10;
 A66 : 03;
 A67 : 4c;
 A68 : 6e;
 A69 : ca;
 A6A : a2;
 A6B : 2d;
 A6C : 86;
 A6D : 00;
 A6E : ea;
 A6F : a0;
 A70 : 80;
 A71 : c0;
 A72 : 00;
 A73 : f0;
 A74 : 07;
 A75 : 10;
 A76 : 05;
 A77 : 90;
 A78 : 03;
 A79 : 4c;
 A7A : 80;
 A7B : ca;
 A7C : a2;
 A7D : 2e;
 A7E : 86;
 A7F : 00;
 A80 : ea;
 A81 : c0;
 A82 : 80;
 A83 : d0;
 A84 : 07;
 A85 : 30;
 A86 : 05;
 A87 : 90;
 A88 : 03;
 A89 : 4c;
 A8A : 90;
 A8B : ca;
 A8C : a2;
 A8D : 2f;
 A8E : 86;
 A8F : 00;
 A90 : ea;
 A91 : c0;
 A92 : 81;
 A93 : b0;
 A94 : 07;
 A95 : f0;
 A96 : 05;
 A97 : 10;
 A98 : 03;
 A99 : 4c;
 A9A : a0;
 A9B : ca;
 A9C : a2;
 A9D : 30;
 A9E : 86;
 A9F : 00;
 AA0 : ea;
 AA1 : c0;
 AA2 : 7f;
 AA3 : 90;
 AA4 : 07;
 AA5 : f0;
 AA6 : 05;
 AA7 : 30;
 AA8 : 03;
 AA9 : 4c;
 AAA : b0;
 AAB : ca;
 AAC : a2;
 AAD : 31;
 AAE : 86;
 AAF : 00;
 AB0 : ea;
 AB1 : 24;
 AB2 : 01;
 AB3 : a2;
 AB4 : 40;
 AB5 : e0;
 AB6 : 40;
 AB7 : d0;
 AB8 : 09;
 AB9 : 30;
 ABA : 07;
 ABB : 90;
 ABC : 05;
 ABD : 50;
 ABE : 03;
 ABF : 4c;
 AC0 : c6;
 AC1 : ca;
 AC2 : a9;
 AC3 : 32;
 AC4 : 85;
 AC5 : 00;
 AC6 : ea;
 AC7 : b8;
 AC8 : e0;
 AC9 : 3f;
 ACA : f0;
 ACB : 09;
 ACC : 30;
 ACD : 07;
 ACE : 90;
 ACF : 05;
 AD0 : 70;
 AD1 : 03;
 AD2 : 4c;
 AD3 : d9;
 AD4 : ca;
 AD5 : a9;
 AD6 : 33;
 AD7 : 85;
 AD8 : 00;
 AD9 : ea;
 ADA : e0;
 ADB : 41;
 ADC : f0;
 ADD : 07;
 ADE : 10;
 ADF : 05;
 AE0 : 10;
 AE1 : 03;
 AE2 : 4c;
 AE3 : e9;
 AE4 : ca;
 AE5 : a9;
 AE6 : 34;
 AE7 : 85;
 AE8 : 00;
 AE9 : ea;
 AEA : a2;
 AEB : 80;
 AEC : e0;
 AED : 00;
 AEE : f0;
 AEF : 07;
 AF0 : 10;
 AF1 : 05;
 AF2 : 90;
 AF3 : 03;
 AF4 : 4c;
 AF5 : fb;
 AF6 : ca;
 AF7 : a9;
 AF8 : 35;
 AF9 : 85;
 AFA : 00;
 AFB : ea;
 AFC : e0;
 AFD : 80;
 AFE : d0;
 AFF : 07;
 B00 : 30;
 B01 : 05;
 B02 : 90;
 B03 : 03;
 B04 : 4c;
 B05 : 0b;
 B06 : cb;
 B07 : a9;
 B08 : 36;
 B09 : 85;
 B0A : 00;
 B0B : ea;
 B0C : e0;
 B0D : 81;
 B0E : b0;
 B0F : 07;
 B10 : f0;
 B11 : 05;
 B12 : 10;
 B13 : 03;
 B14 : 4c;
 B15 : 1b;
 B16 : cb;
 B17 : a9;
 B18 : 37;
 B19 : 85;
 B1A : 00;
 B1B : ea;
 B1C : e0;
 B1D : 7f;
 B1E : 90;
 B1F : 07;
 B20 : f0;
 B21 : 05;
 B22 : 30;
 B23 : 03;
 B24 : 4c;
 B25 : 2b;
 B26 : cb;
 B27 : a9;
 B28 : 38;
 B29 : 85;
 B2A : 00;
 B2B : ea;
 B2C : 38;
 B2D : b8;
 B2E : a2;
 B2F : 9f;
 B30 : f0;
 B31 : 09;
 B32 : 10;
 B33 : 07;
 B34 : 70;
 B35 : 05;
 B36 : 90;
 B37 : 03;
 B38 : 4c;
 B39 : 3f;
 B3A : cb;
 B3B : a2;
 B3C : 39;
 B3D : 86;
 B3E : 00;
 B3F : ea;
 B40 : 18;
 B41 : 24;
 B42 : 01;
 B43 : a2;
 B44 : 00;
 B45 : d0;
 B46 : 09;
 B47 : 30;
 B48 : 07;
 B49 : 50;
 B4A : 05;
 B4B : b0;
 B4C : 03;
 B4D : 4c;
 B4E : 54;
 B4F : cb;
 B50 : a2;
 B51 : 3a;
 B52 : 86;
 B53 : 00;
 B54 : ea;
 B55 : 38;
 B56 : b8;
 B57 : a0;
 B58 : 9f;
 B59 : f0;
 B5A : 09;
 B5B : 10;
 B5C : 07;
 B5D : 70;
 B5E : 05;
 B5F : 90;
 B60 : 03;
 B61 : 4c;
 B62 : 68;
 B63 : cb;
 B64 : a2;
 B65 : 3b;
 B66 : 86;
 B67 : 00;
 B68 : ea;
 B69 : 18;
 B6A : 24;
 B6B : 01;
 B6C : a0;
 B6D : 00;
 B6E : d0;
 B6F : 09;
 B70 : 30;
 B71 : 07;
 B72 : 50;
 B73 : 05;
 B74 : b0;
 B75 : 03;
 B76 : 4c;
 B77 : 7d;
 B78 : cb;
 B79 : a2;
 B7A : 3c;
 B7B : 86;
 B7C : 00;
 B7D : ea;
 B7E : a9;
 B7F : 55;
 B80 : a2;
 B81 : aa;
 B82 : a0;
 B83 : 33;
 B84 : c9;
 B85 : 55;
 B86 : d0;
 B87 : 23;
 B88 : e0;
 B89 : aa;
 B8A : d0;
 B8B : 1f;
 B8C : c0;
 B8D : 33;
 B8E : d0;
 B8F : 1b;
 B90 : c9;
 B91 : 55;
 B92 : d0;
 B93 : 17;
 B94 : e0;
 B95 : aa;
 B96 : d0;
 B97 : 13;
 B98 : c0;
 B99 : 33;
 B9A : d0;
 B9B : 0f;
 B9C : c9;
 B9D : 56;
 B9E : f0;
 B9F : 0b;
 BA0 : e0;
 BA1 : ab;
 BA2 : f0;
 BA3 : 07;
 BA4 : c0;
 BA5 : 34;
 BA6 : f0;
 BA7 : 03;
 BA8 : 4c;
 BA9 : af;
 BAA : cb;
 BAB : a2;
 BAC : 3d;
 BAD : 86;
 BAE : 00;
 BAF : a0;
 BB0 : 71;
 BB1 : 20;
 BB2 : 31;
 BB3 : f9;
 BB4 : e9;
 BB5 : 40;
 BB6 : 20;
 BB7 : 37;
 BB8 : f9;
 BB9 : c8;
 BBA : 20;
 BBB : 47;
 BBC : f9;
 BBD : e9;
 BBE : 3f;
 BBF : 20;
 BC0 : 4c;
 BC1 : f9;
 BC2 : c8;
 BC3 : 20;
 BC4 : 5c;
 BC5 : f9;
 BC6 : e9;
 BC7 : 41;
 BC8 : 20;
 BC9 : 62;
 BCA : f9;
 BCB : c8;
 BCC : 20;
 BCD : 72;
 BCE : f9;
 BCF : e9;
 BD0 : 00;
 BD1 : 20;
 BD2 : 76;
 BD3 : f9;
 BD4 : c8;
 BD5 : 20;
 BD6 : 80;
 BD7 : f9;
 BD8 : e9;
 BD9 : 7f;
 BDA : 20;
 BDB : 84;
 BDC : f9;
 BDD : 60;
 BDE : ea;
 BDF : a9;
 BE0 : ff;
 BE1 : 85;
 BE2 : 01;
 BE3 : a9;
 BE4 : 44;
 BE5 : a2;
 BE6 : 55;
 BE7 : a0;
 BE8 : 66;
 BE9 : e8;
 BEA : 88;
 BEB : e0;
 BEC : 56;
 BED : d0;
 BEE : 21;
 BEF : c0;
 BF0 : 65;
 BF1 : d0;
 BF2 : 1d;
 BF3 : e8;
 BF4 : e8;
 BF5 : 88;
 BF6 : 88;
 BF7 : e0;
 BF8 : 58;
 BF9 : d0;
 BFA : 15;
 BFB : c0;
 BFC : 63;
 BFD : d0;
 BFE : 11;
 BFF : ca;
 C00 : c8;
 C01 : e0;
 C02 : 57;
 C03 : d0;
 C04 : 0b;
 C05 : c0;
 C06 : 64;
 C07 : d0;
 C08 : 07;
 C09 : c9;
 C0A : 44;
 C0B : d0;
 C0C : 03;
 C0D : 4c;
 C0E : 14;
 C0F : cc;
 C10 : a2;
 C11 : 3e;
 C12 : 86;
 C13 : 00;
 C14 : ea;
 C15 : 38;
 C16 : a2;
 C17 : 69;
 C18 : a9;
 C19 : 96;
 C1A : 24;
 C1B : 01;
 C1C : a0;
 C1D : ff;
 C1E : c8;
 C1F : d0;
 C20 : 3d;
 C21 : 30;
 C22 : 3b;
 C23 : 90;
 C24 : 39;
 C25 : 50;
 C26 : 37;
 C27 : c0;
 C28 : 00;
 C29 : d0;
 C2A : 33;
 C2B : c8;
 C2C : f0;
 C2D : 30;
 C2E : 30;
 C2F : 2e;
 C30 : 90;
 C31 : 2c;
 C32 : 50;
 C33 : 2a;
 C34 : 18;
 C35 : b8;
 C36 : a0;
 C37 : 00;
 C38 : 88;
 C39 : f0;
 C3A : 23;
 C3B : 10;
 C3C : 21;
 C3D : b0;
 C3E : 1f;
 C3F : 70;
 C40 : 1d;
 C41 : c0;
 C42 : ff;
 C43 : d0;
 C44 : 19;
 C45 : 18;
 C46 : 88;
 C47 : f0;
 C48 : 15;
 C49 : 10;
 C4A : 13;
 C4B : b0;
 C4C : 11;
 C4D : 70;
 C4E : 0f;
 C4F : c0;
 C50 : fe;
 C51 : d0;
 C52 : 0b;
 C53 : c9;
 C54 : 96;
 C55 : d0;
 C56 : 07;
 C57 : e0;
 C58 : 69;
 C59 : d0;
 C5A : 03;
 C5B : 4c;
 C5C : 62;
 C5D : cc;
 C5E : a2;
 C5F : 3f;
 C60 : 86;
 C61 : 00;
 C62 : ea;
 C63 : 38;
 C64 : a0;
 C65 : 69;
 C66 : a9;
 C67 : 96;
 C68 : 24;
 C69 : 01;
 C6A : a2;
 C6B : ff;
 C6C : e8;
 C6D : d0;
 C6E : 3d;
 C6F : 30;
 C70 : 3b;
 C71 : 90;
 C72 : 39;
 C73 : 50;
 C74 : 37;
 C75 : e0;
 C76 : 00;
 C77 : d0;
 C78 : 33;
 C79 : e8;
 C7A : f0;
 C7B : 30;
 C7C : 30;
 C7D : 2e;
 C7E : 90;
 C7F : 2c;
 C80 : 50;
 C81 : 2a;
 C82 : 18;
 C83 : b8;
 C84 : a2;
 C85 : 00;
 C86 : ca;
 C87 : f0;
 C88 : 23;
 C89 : 10;
 C8A : 21;
 C8B : b0;
 C8C : 1f;
 C8D : 70;
 C8E : 1d;
 C8F : e0;
 C90 : ff;
 C91 : d0;
 C92 : 19;
 C93 : 18;
 C94 : ca;
 C95 : f0;
 C96 : 15;
 C97 : 10;
 C98 : 13;
 C99 : b0;
 C9A : 11;
 C9B : 70;
 C9C : 0f;
 C9D : e0;
 C9E : fe;
 C9F : d0;
 CA0 : 0b;
 CA1 : c9;
 CA2 : 96;
 CA3 : d0;
 CA4 : 07;
 CA5 : c0;
 CA6 : 69;
 CA7 : d0;
 CA8 : 03;
 CA9 : 4c;
 CAA : b0;
 CAB : cc;
 CAC : a2;
 CAD : 40;
 CAE : 86;
 CAF : 00;
 CB0 : ea;
 CB1 : a9;
 CB2 : 85;
 CB3 : a2;
 CB4 : 34;
 CB5 : a0;
 CB6 : 99;
 CB7 : 18;
 CB8 : 24;
 CB9 : 01;
 CBA : a8;
 CBB : f0;
 CBC : 2e;
 CBD : b0;
 CBE : 2c;
 CBF : 50;
 CC0 : 2a;
 CC1 : 10;
 CC2 : 28;
 CC3 : c9;
 CC4 : 85;
 CC5 : d0;
 CC6 : 24;
 CC7 : e0;
 CC8 : 34;
 CC9 : d0;
 CCA : 20;
 CCB : c0;
 CCC : 85;
 CCD : d0;
 CCE : 1c;
 CCF : a9;
 CD0 : 00;
 CD1 : 38;
 CD2 : b8;
 CD3 : a8;
 CD4 : d0;
 CD5 : 15;
 CD6 : 90;
 CD7 : 13;
 CD8 : 70;
 CD9 : 11;
 CDA : 30;
 CDB : 0f;
 CDC : c9;
 CDD : 00;
 CDE : d0;
 CDF : 0b;
 CE0 : e0;
 CE1 : 34;
 CE2 : d0;
 CE3 : 07;
 CE4 : c0;
 CE5 : 00;
 CE6 : d0;
 CE7 : 03;
 CE8 : 4c;
 CE9 : ef;
 CEA : cc;
 CEB : a2;
 CEC : 41;
 CED : 86;
 CEE : 00;
 CEF : ea;
 CF0 : a9;
 CF1 : 85;
 CF2 : a2;
 CF3 : 34;
 CF4 : a0;
 CF5 : 99;
 CF6 : 18;
 CF7 : 24;
 CF8 : 01;
 CF9 : aa;
 CFA : f0;
 CFB : 2e;
 CFC : b0;
 CFD : 2c;
 CFE : 50;
 CFF : 2a;
 D00 : 10;
 D01 : 28;
 D02 : c9;
 D03 : 85;
 D04 : d0;
 D05 : 24;
 D06 : e0;
 D07 : 85;
 D08 : d0;
 D09 : 20;
 D0A : c0;
 D0B : 99;
 D0C : d0;
 D0D : 1c;
 D0E : a9;
 D0F : 00;
 D10 : 38;
 D11 : b8;
 D12 : aa;
 D13 : d0;
 D14 : 15;
 D15 : 90;
 D16 : 13;
 D17 : 70;
 D18 : 11;
 D19 : 30;
 D1A : 0f;
 D1B : c9;
 D1C : 00;
 D1D : d0;
 D1E : 0b;
 D1F : e0;
 D20 : 00;
 D21 : d0;
 D22 : 07;
 D23 : c0;
 D24 : 99;
 D25 : d0;
 D26 : 03;
 D27 : 4c;
 D28 : 2e;
 D29 : cd;
 D2A : a2;
 D2B : 42;
 D2C : 86;
 D2D : 00;
 D2E : ea;
 D2F : a9;
 D30 : 85;
 D31 : a2;
 D32 : 34;
 D33 : a0;
 D34 : 99;
 D35 : 18;
 D36 : 24;
 D37 : 01;
 D38 : 98;
 D39 : f0;
 D3A : 2e;
 D3B : b0;
 D3C : 2c;
 D3D : 50;
 D3E : 2a;
 D3F : 10;
 D40 : 28;
 D41 : c9;
 D42 : 99;
 D43 : d0;
 D44 : 24;
 D45 : e0;
 D46 : 34;
 D47 : d0;
 D48 : 20;
 D49 : c0;
 D4A : 99;
 D4B : d0;
 D4C : 1c;
 D4D : a0;
 D4E : 00;
 D4F : 38;
 D50 : b8;
 D51 : 98;
 D52 : d0;
 D53 : 15;
 D54 : 90;
 D55 : 13;
 D56 : 70;
 D57 : 11;
 D58 : 30;
 D59 : 0f;
 D5A : c9;
 D5B : 00;
 D5C : d0;
 D5D : 0b;
 D5E : e0;
 D5F : 34;
 D60 : d0;
 D61 : 07;
 D62 : c0;
 D63 : 00;
 D64 : d0;
 D65 : 03;
 D66 : 4c;
 D67 : 6d;
 D68 : cd;
 D69 : a2;
 D6A : 43;
 D6B : 86;
 D6C : 00;
 D6D : ea;
 D6E : a9;
 D6F : 85;
 D70 : a2;
 D71 : 34;
 D72 : a0;
 D73 : 99;
 D74 : 18;
 D75 : 24;
 D76 : 01;
 D77 : 8a;
 D78 : f0;
 D79 : 2e;
 D7A : b0;
 D7B : 2c;
 D7C : 50;
 D7D : 2a;
 D7E : 30;
 D7F : 28;
 D80 : c9;
 D81 : 34;
 D82 : d0;
 D83 : 24;
 D84 : e0;
 D85 : 34;
 D86 : d0;
 D87 : 20;
 D88 : c0;
 D89 : 99;
 D8A : d0;
 D8B : 1c;
 D8C : a2;
 D8D : 00;
 D8E : 38;
 D8F : b8;
 D90 : 8a;
 D91 : d0;
 D92 : 15;
 D93 : 90;
 D94 : 13;
 D95 : 70;
 D96 : 11;
 D97 : 30;
 D98 : 0f;
 D99 : c9;
 D9A : 00;
 D9B : d0;
 D9C : 0b;
 D9D : e0;
 D9E : 00;
 D9F : d0;
 DA0 : 07;
 DA1 : c0;
 DA2 : 99;
 DA3 : d0;
 DA4 : 03;
 DA5 : 4c;
 DA6 : ac;
 DA7 : cd;
 DA8 : a2;
 DA9 : 44;
 DAA : 86;
 DAB : 00;
 DAC : ea;
 DAD : ba;
 DAE : 8e;
 DAF : ff;
 DB0 : 07;
 DB1 : a0;
 DB2 : 33;
 DB3 : a2;
 DB4 : 69;
 DB5 : a9;
 DB6 : 84;
 DB7 : 18;
 DB8 : 24;
 DB9 : 01;
 DBA : 9a;
 DBB : f0;
 DBC : 32;
 DBD : 10;
 DBE : 30;
 DBF : b0;
 DC0 : 2e;
 DC1 : 50;
 DC2 : 2c;
 DC3 : c9;
 DC4 : 84;
 DC5 : d0;
 DC6 : 28;
 DC7 : e0;
 DC8 : 69;
 DC9 : d0;
 DCA : 24;
 DCB : c0;
 DCC : 33;
 DCD : d0;
 DCE : 20;
 DCF : a0;
 DD0 : 01;
 DD1 : a9;
 DD2 : 04;
 DD3 : 38;
 DD4 : b8;
 DD5 : a2;
 DD6 : 00;
 DD7 : ba;
 DD8 : f0;
 DD9 : 15;
 DDA : 30;
 DDB : 13;
 DDC : 90;
 DDD : 11;
 DDE : 70;
 DDF : 0f;
 DE0 : e0;
 DE1 : 69;
 DE2 : d0;
 DE3 : 0b;
 DE4 : c9;
 DE5 : 04;
 DE6 : d0;
 DE7 : 07;
 DE8 : c0;
 DE9 : 01;
 DEA : d0;
 DEB : 03;
 DEC : 4c;
 DED : f3;
 DEE : cd;
 DEF : a2;
 DF0 : 45;
 DF1 : 86;
 DF2 : 00;
 DF3 : ae;
 DF4 : ff;
 DF5 : 07;
 DF6 : 9a;
 DF7 : 60;
 DF8 : a9;
 DF9 : ff;
 DFA : 85;
 DFB : 01;
 DFC : ba;
 DFD : 8e;
 DFE : ff;
 DFF : 07;
 E00 : ea;
 E01 : a2;
 E02 : 80;
 E03 : 9a;
 E04 : a9;
 E05 : 33;
 E06 : 48;
 E07 : a9;
 E08 : 69;
 E09 : 48;
 E0A : ba;
 E0B : e0;
 E0C : 7e;
 E0D : d0;
 E0E : 20;
 E0F : 68;
 E10 : c9;
 E11 : 69;
 E12 : d0;
 E13 : 1b;
 E14 : 68;
 E15 : c9;
 E16 : 33;
 E17 : d0;
 E18 : 16;
 E19 : ba;
 E1A : e0;
 E1B : 80;
 E1C : d0;
 E1D : 11;
 E1E : ad;
 E1F : 80;
 E20 : 01;
 E21 : c9;
 E22 : 33;
 E23 : d0;
 E24 : 0a;
 E25 : ad;
 E26 : 7f;
 E27 : 01;
 E28 : c9;
 E29 : 69;
 E2A : d0;
 E2B : 03;
 E2C : 4c;
 E2D : 33;
 E2E : ce;
 E2F : a2;
 E30 : 46;
 E31 : 86;
 E32 : 00;
 E33 : ea;
 E34 : a2;
 E35 : 80;
 E36 : 9a;
 E37 : 20;
 E38 : 3d;
 E39 : ce;
 E3A : 4c;
 E3B : 5b;
 E3C : ce;
 E3D : ba;
 E3E : e0;
 E3F : 7e;
 E40 : d0;
 E41 : 19;
 E42 : 68;
 E43 : 68;
 E44 : ba;
 E45 : e0;
 E46 : 80;
 E47 : d0;
 E48 : 12;
 E49 : a9;
 E4A : 00;
 E4B : 20;
 E4C : 4e;
 E4D : ce;
 E4E : 68;
 E4F : c9;
 E50 : 4d;
 E51 : d0;
 E52 : 08;
 E53 : 68;
 E54 : c9;
 E55 : ce;
 E56 : d0;
 E57 : 03;
 E58 : 4c;
 E59 : 5f;
 E5A : ce;
 E5B : a2;
 E5C : 47;
 E5D : 86;
 E5E : 00;
 E5F : ea;
 E60 : a9;
 E61 : ce;
 E62 : 48;
 E63 : a9;
 E64 : 66;
 E65 : 48;
 E66 : 60;
 E67 : a2;
 E68 : 77;
 E69 : a0;
 E6A : 69;
 E6B : 18;
 E6C : 24;
 E6D : 01;
 E6E : a9;
 E6F : 83;
 E70 : 20;
 E71 : 66;
 E72 : ce;
 E73 : f0;
 E74 : 24;
 E75 : 10;
 E76 : 22;
 E77 : b0;
 E78 : 20;
 E79 : 50;
 E7A : 1e;
 E7B : c9;
 E7C : 83;
 E7D : d0;
 E7E : 1a;
 E7F : c0;
 E80 : 69;
 E81 : d0;
 E82 : 16;
 E83 : e0;
 E84 : 77;
 E85 : d0;
 E86 : 12;
 E87 : 38;
 E88 : b8;
 E89 : a9;
 E8A : 00;
 E8B : 20;
 E8C : 66;
 E8D : ce;
 E8E : d0;
 E8F : 09;
 E90 : 30;
 E91 : 07;
 E92 : 90;
 E93 : 05;
 E94 : 70;
 E95 : 03;
 E96 : 4c;
 E97 : 9d;
 E98 : ce;
 E99 : a2;
 E9A : 48;
 E9B : 86;
 E9C : 00;
 E9D : ea;
 E9E : a9;
 E9F : ce;
 EA0 : 48;
 EA1 : a9;
 EA2 : ae;
 EA3 : 48;
 EA4 : a9;
 EA5 : 65;
 EA6 : 48;
 EA7 : a9;
 EA8 : 55;
 EA9 : a0;
 EAA : 88;
 EAB : a2;
 EAC : 99;
 EAD : 40;
 EAE : 30;
 EAF : 35;
 EB0 : 50;
 EB1 : 33;
 EB2 : f0;
 EB3 : 31;
 EB4 : 90;
 EB5 : 2f;
 EB6 : c9;
 EB7 : 55;
 EB8 : d0;
 EB9 : 2b;
 EBA : c0;
 EBB : 88;
 EBC : d0;
 EBD : 27;
 EBE : e0;
 EBF : 99;
 EC0 : d0;
 EC1 : 23;
 EC2 : a9;
 EC3 : ce;
 EC4 : 48;
 EC5 : a9;
 EC6 : ce;
 EC7 : 48;
 EC8 : a9;
 EC9 : 87;
 ECA : 48;
 ECB : a9;
 ECC : 55;
 ECD : 40;
 ECE : 10;
 ECF : 15;
 ED0 : 70;
 ED1 : 13;
 ED2 : d0;
 ED3 : 11;
 ED4 : 90;
 ED5 : 0f;
 ED6 : c9;
 ED7 : 55;
 ED8 : d0;
 ED9 : 0b;
 EDA : c0;
 EDB : 88;
 EDC : d0;
 EDD : 07;
 EDE : e0;
 EDF : 99;
 EE0 : d0;
 EE1 : 03;
 EE2 : 4c;
 EE3 : e9;
 EE4 : ce;
 EE5 : a2;
 EE6 : 49;
 EE7 : 86;
 EE8 : 00;
 EE9 : ae;
 EEA : ff;
 EEB : 07;
 EEC : 9a;
 EED : 60;
 EEE : a2;
 EEF : 55;
 EF0 : a0;
 EF1 : 69;
 EF2 : a9;
 EF3 : ff;
 EF4 : 85;
 EF5 : 01;
 EF6 : ea;
 EF7 : 24;
 EF8 : 01;
 EF9 : 38;
 EFA : a9;
 EFB : 01;
 EFC : 4a;
 EFD : 90;
 EFE : 1d;
 EFF : d0;
 F00 : 1b;
 F01 : 30;
 F02 : 19;
 F03 : 50;
 F04 : 17;
 F05 : c9;
 F06 : 00;
 F07 : d0;
 F08 : 13;
 F09 : b8;
 F0A : a9;
 F0B : aa;
 F0C : 4a;
 F0D : b0;
 F0E : 0d;
 F0F : f0;
 F10 : 0b;
 F11 : 30;
 F12 : 09;
 F13 : 70;
 F14 : 07;
 F15 : c9;
 F16 : 55;
 F17 : d0;
 F18 : 03;
 F19 : 4c;
 F1A : 20;
 F1B : cf;
 F1C : a2;
 F1D : 4a;
 F1E : 86;
 F1F : 00;
 F20 : ea;
 F21 : 24;
 F22 : 01;
 F23 : 38;
 F24 : a9;
 F25 : 80;
 F26 : 0a;
 F27 : 90;
 F28 : 1e;
 F29 : d0;
 F2A : 1c;
 F2B : 30;
 F2C : 1a;
 F2D : 50;
 F2E : 18;
 F2F : c9;
 F30 : 00;
 F31 : d0;
 F32 : 14;
 F33 : b8;
 F34 : 38;
 F35 : a9;
 F36 : 55;
 F37 : 0a;
 F38 : b0;
 F39 : 0d;
 F3A : f0;
 F3B : 0b;
 F3C : 10;
 F3D : 09;
 F3E : 70;
 F3F : 07;
 F40 : c9;
 F41 : aa;
 F42 : d0;
 F43 : 03;
 F44 : 4c;
 F45 : 4b;
 F46 : cf;
 F47 : a2;
 F48 : 4b;
 F49 : 86;
 F4A : 00;
 F4B : ea;
 F4C : 24;
 F4D : 01;
 F4E : 38;
 F4F : a9;
 F50 : 01;
 F51 : 6a;
 F52 : 90;
 F53 : 1e;
 F54 : f0;
 F55 : 1c;
 F56 : 10;
 F57 : 1a;
 F58 : 50;
 F59 : 18;
 F5A : c9;
 F5B : 80;
 F5C : d0;
 F5D : 14;
 F5E : b8;
 F5F : 18;
 F60 : a9;
 F61 : 55;
 F62 : 6a;
 F63 : 90;
 F64 : 0d;
 F65 : f0;
 F66 : 0b;
 F67 : 30;
 F68 : 09;
 F69 : 70;
 F6A : 07;
 F6B : c9;
 F6C : 2a;
 F6D : d0;
 F6E : 03;
 F6F : 4c;
 F70 : 76;
 F71 : cf;
 F72 : a2;
 F73 : 4c;
 F74 : 86;
 F75 : 00;
 F76 : ea;
 F77 : 24;
 F78 : 01;
 F79 : 38;
 F7A : a9;
 F7B : 80;
 F7C : 2a;
 F7D : 90;
 F7E : 1e;
 F7F : f0;
 F80 : 1c;
 F81 : 30;
 F82 : 1a;
 F83 : 50;
 F84 : 18;
 F85 : c9;
 F86 : 01;
 F87 : d0;
 F88 : 14;
 F89 : b8;
 F8A : 18;
 F8B : a9;
 F8C : 55;
 F8D : 2a;
 F8E : b0;
 F8F : 0d;
 F90 : f0;
 F91 : 0b;
 F92 : 10;
 F93 : 09;
 F94 : 70;
 F95 : 07;
 F96 : c9;
 F97 : aa;
 F98 : d0;
 F99 : 03;
 F9A : 4c;
 F9B : a1;
 F9C : cf;
 F9D : a2;
 F9E : 4d;
 F9F : 86;
 FA0 : 00;
 FA1 : 60;
 FA2 : a5;
 FA3 : 00;
 FA4 : 8d;
 FA5 : ff;
 FA6 : 07;
 FA7 : a9;
 FA8 : 00;
 FA9 : 85;
 FAA : 80;
 FAB : a9;
 FAC : 02;
 FAD : 85;
 FAE : 81;
 FAF : a9;
 FB0 : ff;
 FB1 : 85;
 FB2 : 01;
 FB3 : a9;
 FB4 : 00;
 FB5 : 85;
 FB6 : 82;
 FB7 : a9;
 FB8 : 03;
 FB9 : 85;
 FBA : 83;
 FBB : 85;
 FBC : 84;
 FBD : a9;
 FBE : 00;
 FBF : 85;
 FC0 : ff;
 FC1 : a9;
 FC2 : 04;
 FC3 : 85;
 FC4 : 00;
 FC5 : a9;
 FC6 : 5a;
 FC7 : 8d;
 FC8 : 00;
 FC9 : 02;
 FCA : a9;
 FCB : 5b;
 FCC : 8d;
 FCD : 00;
 FCE : 03;
 FCF : a9;
 FD0 : 5c;
 FD1 : 8d;
 FD2 : 03;
 FD3 : 03;
 FD4 : a9;
 FD5 : 5d;
 FD6 : 8d;
 FD7 : 00;
 FD8 : 04;
 FD9 : a2;
 FDA : 00;
 FDB : a1;
 FDC : 80;
 FDD : c9;
 FDE : 5a;
 FDF : d0;
 FE0 : 1f;
 FE1 : e8;
 FE2 : e8;
 FE3 : a1;
 FE4 : 80;
 FE5 : c9;
 FE6 : 5b;
 FE7 : d0;
 FE8 : 17;
 FE9 : e8;
 FEA : a1;
 FEB : 80;
 FEC : c9;
 FED : 5c;
 FEE : d0;
 FEF : 10;
 FF0 : a2;
 FF1 : 00;
 FF2 : a1;
 FF3 : ff;
 FF4 : c9;
 FF5 : 5d;
 FF6 : d0;
 FF7 : 08;
 FF8 : a2;
 FF9 : 81;
 FFA : a1;
 FFB : ff;
 FFC : c9;
 FFD : 5a;
 FFE : f0;
 FFF : 05;
1000 : a9;
1001 : 58;
1002 : 8d;
1003 : ff;
1004 : 07;
1005 : a9;
1006 : aa;
1007 : a2;
1008 : 00;
1009 : 81;
100A : 80;
100B : e8;
100C : e8;
100D : a9;
100E : ab;
100F : 81;
1010 : 80;
1011 : e8;
1012 : a9;
1013 : ac;
1014 : 81;
1015 : 80;
1016 : a2;
1017 : 00;
1018 : a9;
1019 : ad;
101A : 81;
101B : ff;
101C : ad;
101D : 00;
101E : 02;
101F : c9;
1020 : aa;
1021 : d0;
1022 : 15;
1023 : ad;
1024 : 00;
1025 : 03;
1026 : c9;
1027 : ab;
1028 : d0;
1029 : 0e;
102A : ad;
102B : 03;
102C : 03;
102D : c9;
102E : ac;
102F : d0;
1030 : 07;
1031 : ad;
1032 : 00;
1033 : 04;
1034 : c9;
1035 : ad;
1036 : f0;
1037 : 05;
1038 : a9;
1039 : 59;
103A : 8d;
103B : ff;
103C : 07;
103D : ad;
103E : ff;
103F : 07;
1040 : 85;
1041 : 00;
1042 : a9;
1043 : 00;
1044 : 8d;
1045 : 00;
1046 : 03;
1047 : a9;
1048 : aa;
1049 : 8d;
104A : 00;
104B : 02;
104C : a2;
104D : 00;
104E : a0;
104F : 5a;
1050 : 20;
1051 : b6;
1052 : f7;
1053 : 01;
1054 : 80;
1055 : 20;
1056 : c0;
1057 : f7;
1058 : c8;
1059 : 20;
105A : ce;
105B : f7;
105C : 01;
105D : 82;
105E : 20;
105F : d3;
1060 : f7;
1061 : c8;
1062 : 20;
1063 : df;
1064 : f7;
1065 : 21;
1066 : 80;
1067 : 20;
1068 : e5;
1069 : f7;
106A : c8;
106B : a9;
106C : ef;
106D : 8d;
106E : 00;
106F : 03;
1070 : 20;
1071 : f1;
1072 : f7;
1073 : 21;
1074 : 82;
1075 : 20;
1076 : f6;
1077 : f7;
1078 : c8;
1079 : 20;
107A : 04;
107B : f8;
107C : 41;
107D : 80;
107E : 20;
107F : 0a;
1080 : f8;
1081 : c8;
1082 : a9;
1083 : 70;
1084 : 8d;
1085 : 00;
1086 : 03;
1087 : 20;
1088 : 18;
1089 : f8;
108A : 41;
108B : 82;
108C : 20;
108D : 1d;
108E : f8;
108F : c8;
1090 : a9;
1091 : 69;
1092 : 8d;
1093 : 00;
1094 : 02;
1095 : 20;
1096 : 29;
1097 : f8;
1098 : 61;
1099 : 80;
109A : 20;
109B : 2f;
109C : f8;
109D : c8;
109E : 20;
109F : 3d;
10A0 : f8;
10A1 : 61;
10A2 : 80;
10A3 : 20;
10A4 : 43;
10A5 : f8;
10A6 : c8;
10A7 : a9;
10A8 : 7f;
10A9 : 8d;
10AA : 00;
10AB : 02;
10AC : 20;
10AD : 51;
10AE : f8;
10AF : 61;
10B0 : 80;
10B1 : 20;
10B2 : 56;
10B3 : f8;
10B4 : c8;
10B5 : a9;
10B6 : 80;
10B7 : 8d;
10B8 : 00;
10B9 : 02;
10BA : 20;
10BB : 64;
10BC : f8;
10BD : 61;
10BE : 80;
10BF : 20;
10C0 : 6a;
10C1 : f8;
10C2 : c8;
10C3 : 20;
10C4 : 78;
10C5 : f8;
10C6 : 61;
10C7 : 80;
10C8 : 20;
10C9 : 7d;
10CA : f8;
10CB : c8;
10CC : a9;
10CD : 40;
10CE : 8d;
10CF : 00;
10D0 : 02;
10D1 : 20;
10D2 : 89;
10D3 : f8;
10D4 : c1;
10D5 : 80;
10D6 : 20;
10D7 : 8e;
10D8 : f8;
10D9 : c8;
10DA : 48;
10DB : a9;
10DC : 3f;
10DD : 8d;
10DE : 00;
10DF : 02;
10E0 : 68;
10E1 : 20;
10E2 : 9a;
10E3 : f8;
10E4 : c1;
10E5 : 80;
10E6 : 20;
10E7 : 9c;
10E8 : f8;
10E9 : c8;
10EA : 48;
10EB : a9;
10EC : 41;
10ED : 8d;
10EE : 00;
10EF : 02;
10F0 : 68;
10F1 : c1;
10F2 : 80;
10F3 : 20;
10F4 : a8;
10F5 : f8;
10F6 : c8;
10F7 : 48;
10F8 : a9;
10F9 : 00;
10FA : 8d;
10FB : 00;
10FC : 02;
10FD : 68;
10FE : 20;
10FF : b2;
1100 : f8;
1101 : c1;
1102 : 80;
1103 : 20;
1104 : b5;
1105 : f8;
1106 : c8;
1107 : 48;
1108 : a9;
1109 : 80;
110A : 8d;
110B : 00;
110C : 02;
110D : 68;
110E : c1;
110F : 80;
1110 : 20;
1111 : bf;
1112 : f8;
1113 : c8;
1114 : 48;
1115 : a9;
1116 : 81;
1117 : 8d;
1118 : 00;
1119 : 02;
111A : 68;
111B : c1;
111C : 80;
111D : 20;
111E : c9;
111F : f8;
1120 : c8;
1121 : 48;
1122 : a9;
1123 : 7f;
1124 : 8d;
1125 : 00;
1126 : 02;
1127 : 68;
1128 : c1;
1129 : 80;
112A : 20;
112B : d3;
112C : f8;
112D : c8;
112E : a9;
112F : 40;
1130 : 8d;
1131 : 00;
1132 : 02;
1133 : 20;
1134 : 31;
1135 : f9;
1136 : e1;
1137 : 80;
1138 : 20;
1139 : 37;
113A : f9;
113B : c8;
113C : a9;
113D : 3f;
113E : 8d;
113F : 00;
1140 : 02;
1141 : 20;
1142 : 47;
1143 : f9;
1144 : e1;
1145 : 80;
1146 : 20;
1147 : 4c;
1148 : f9;
1149 : c8;
114A : a9;
114B : 41;
114C : 8d;
114D : 00;
114E : 02;
114F : 20;
1150 : 5c;
1151 : f9;
1152 : e1;
1153 : 80;
1154 : 20;
1155 : 62;
1156 : f9;
1157 : c8;
1158 : a9;
1159 : 00;
115A : 8d;
115B : 00;
115C : 02;
115D : 20;
115E : 72;
115F : f9;
1160 : e1;
1161 : 80;
1162 : 20;
1163 : 76;
1164 : f9;
1165 : c8;
1166 : a9;
1167 : 7f;
1168 : 8d;
1169 : 00;
116A : 02;
116B : 20;
116C : 80;
116D : f9;
116E : e1;
116F : 80;
1170 : 20;
1171 : 84;
1172 : f9;
1173 : 60;
1174 : a9;
1175 : 55;
1176 : 85;
1177 : 78;
1178 : a9;
1179 : ff;
117A : 85;
117B : 01;
117C : 24;
117D : 01;
117E : a0;
117F : 11;
1180 : a2;
1181 : 23;
1182 : a9;
1183 : 00;
1184 : a5;
1185 : 78;
1186 : f0;
1187 : 10;
1188 : 30;
1189 : 0e;
118A : c9;
118B : 55;
118C : d0;
118D : 0a;
118E : c0;
118F : 11;
1190 : d0;
1191 : 06;
1192 : e0;
1193 : 23;
1194 : 50;
1195 : 02;
1196 : f0;
1197 : 04;
1198 : a9;
1199 : 76;
119A : 85;
119B : 00;
119C : a9;
119D : 46;
119E : 24;
119F : 01;
11A0 : 85;
11A1 : 78;
11A2 : f0;
11A3 : 0a;
11A4 : 10;
11A5 : 08;
11A6 : 50;
11A7 : 06;
11A8 : a5;
11A9 : 78;
11AA : c9;
11AB : 46;
11AC : f0;
11AD : 04;
11AE : a9;
11AF : 77;
11B0 : 85;
11B1 : 00;
11B2 : a9;
11B3 : 55;
11B4 : 85;
11B5 : 78;
11B6 : 24;
11B7 : 01;
11B8 : a9;
11B9 : 11;
11BA : a2;
11BB : 23;
11BC : a0;
11BD : 00;
11BE : a4;
11BF : 78;
11C0 : f0;
11C1 : 10;
11C2 : 30;
11C3 : 0e;
11C4 : c0;
11C5 : 55;
11C6 : d0;
11C7 : 0a;
11C8 : c9;
11C9 : 11;
11CA : d0;
11CB : 06;
11CC : e0;
11CD : 23;
11CE : 50;
11CF : 02;
11D0 : f0;
11D1 : 04;
11D2 : a9;
11D3 : 78;
11D4 : 85;
11D5 : 00;
11D6 : a0;
11D7 : 46;
11D8 : 24;
11D9 : 01;
11DA : 84;
11DB : 78;
11DC : f0;
11DD : 0a;
11DE : 10;
11DF : 08;
11E0 : 50;
11E1 : 06;
11E2 : a4;
11E3 : 78;
11E4 : c0;
11E5 : 46;
11E6 : f0;
11E7 : 04;
11E8 : a9;
11E9 : 79;
11EA : 85;
11EB : 00;
11EC : 24;
11ED : 01;
11EE : a9;
11EF : 55;
11F0 : 85;
11F1 : 78;
11F2 : a0;
11F3 : 11;
11F4 : a9;
11F5 : 23;
11F6 : a2;
11F7 : 00;
11F8 : a6;
11F9 : 78;
11FA : f0;
11FB : 10;
11FC : 30;
11FD : 0e;
11FE : e0;
11FF : 55;
1200 : d0;
1201 : 0a;
1202 : c0;
1203 : 11;
1204 : d0;
1205 : 06;
1206 : c9;
1207 : 23;
1208 : 50;
1209 : 02;
120A : f0;
120B : 04;
120C : a9;
120D : 7a;
120E : 85;
120F : 00;
1210 : a2;
1211 : 46;
1212 : 24;
1213 : 01;
1214 : 86;
1215 : 78;
1216 : f0;
1217 : 0a;
1218 : 10;
1219 : 08;
121A : 50;
121B : 06;
121C : a6;
121D : 78;
121E : e0;
121F : 46;
1220 : f0;
1221 : 04;
1222 : a9;
1223 : 7b;
1224 : 85;
1225 : 00;
1226 : a9;
1227 : c0;
1228 : 85;
1229 : 78;
122A : a2;
122B : 33;
122C : a0;
122D : 88;
122E : a9;
122F : 05;
1230 : 24;
1231 : 78;
1232 : 10;
1233 : 10;
1234 : 50;
1235 : 0e;
1236 : d0;
1237 : 0c;
1238 : c9;
1239 : 05;
123A : d0;
123B : 08;
123C : e0;
123D : 33;
123E : d0;
123F : 04;
1240 : c0;
1241 : 88;
1242 : f0;
1243 : 04;
1244 : a9;
1245 : 7c;
1246 : 85;
1247 : 00;
1248 : a9;
1249 : 03;
124A : 85;
124B : 78;
124C : a9;
124D : 01;
124E : 24;
124F : 78;
1250 : 30;
1251 : 08;
1252 : 70;
1253 : 06;
1254 : f0;
1255 : 04;
1256 : c9;
1257 : 01;
1258 : f0;
1259 : 04;
125A : a9;
125B : 7d;
125C : 85;
125D : 00;
125E : a0;
125F : 7e;
1260 : a9;
1261 : aa;
1262 : 85;
1263 : 78;
1264 : 20;
1265 : b6;
1266 : f7;
1267 : 05;
1268 : 78;
1269 : 20;
126A : c0;
126B : f7;
126C : c8;
126D : a9;
126E : 00;
126F : 85;
1270 : 78;
1271 : 20;
1272 : ce;
1273 : f7;
1274 : 05;
1275 : 78;
1276 : 20;
1277 : d3;
1278 : f7;
1279 : c8;
127A : a9;
127B : aa;
127C : 85;
127D : 78;
127E : 20;
127F : df;
1280 : f7;
1281 : 25;
1282 : 78;
1283 : 20;
1284 : e5;
1285 : f7;
1286 : c8;
1287 : a9;
1288 : ef;
1289 : 85;
128A : 78;
128B : 20;
128C : f1;
128D : f7;
128E : 25;
128F : 78;
1290 : 20;
1291 : f6;
1292 : f7;
1293 : c8;
1294 : a9;
1295 : aa;
1296 : 85;
1297 : 78;
1298 : 20;
1299 : 04;
129A : f8;
129B : 45;
129C : 78;
129D : 20;
129E : 0a;
129F : f8;
12A0 : c8;
12A1 : a9;
12A2 : 70;
12A3 : 85;
12A4 : 78;
12A5 : 20;
12A6 : 18;
12A7 : f8;
12A8 : 45;
12A9 : 78;
12AA : 20;
12AB : 1d;
12AC : f8;
12AD : c8;
12AE : a9;
12AF : 69;
12B0 : 85;
12B1 : 78;
12B2 : 20;
12B3 : 29;
12B4 : f8;
12B5 : 65;
12B6 : 78;
12B7 : 20;
12B8 : 2f;
12B9 : f8;
12BA : c8;
12BB : 20;
12BC : 3d;
12BD : f8;
12BE : 65;
12BF : 78;
12C0 : 20;
12C1 : 43;
12C2 : f8;
12C3 : c8;
12C4 : a9;
12C5 : 7f;
12C6 : 85;
12C7 : 78;
12C8 : 20;
12C9 : 51;
12CA : f8;
12CB : 65;
12CC : 78;
12CD : 20;
12CE : 56;
12CF : f8;
12D0 : c8;
12D1 : a9;
12D2 : 80;
12D3 : 85;
12D4 : 78;
12D5 : 20;
12D6 : 64;
12D7 : f8;
12D8 : 65;
12D9 : 78;
12DA : 20;
12DB : 6a;
12DC : f8;
12DD : c8;
12DE : 20;
12DF : 78;
12E0 : f8;
12E1 : 65;
12E2 : 78;
12E3 : 20;
12E4 : 7d;
12E5 : f8;
12E6 : c8;
12E7 : a9;
12E8 : 40;
12E9 : 85;
12EA : 78;
12EB : 20;
12EC : 89;
12ED : f8;
12EE : c5;
12EF : 78;
12F0 : 20;
12F1 : 8e;
12F2 : f8;
12F3 : c8;
12F4 : 48;
12F5 : a9;
12F6 : 3f;
12F7 : 85;
12F8 : 78;
12F9 : 68;
12FA : 20;
12FB : 9a;
12FC : f8;
12FD : c5;
12FE : 78;
12FF : 20;
1300 : 9c;
1301 : f8;
1302 : c8;
1303 : 48;
1304 : a9;
1305 : 41;
1306 : 85;
1307 : 78;
1308 : 68;
1309 : c5;
130A : 78;
130B : 20;
130C : a8;
130D : f8;
130E : c8;
130F : 48;
1310 : a9;
1311 : 00;
1312 : 85;
1313 : 78;
1314 : 68;
1315 : 20;
1316 : b2;
1317 : f8;
1318 : c5;
1319 : 78;
131A : 20;
131B : b5;
131C : f8;
131D : c8;
131E : 48;
131F : a9;
1320 : 80;
1321 : 85;
1322 : 78;
1323 : 68;
1324 : c5;
1325 : 78;
1326 : 20;
1327 : bf;
1328 : f8;
1329 : c8;
132A : 48;
132B : a9;
132C : 81;
132D : 85;
132E : 78;
132F : 68;
1330 : c5;
1331 : 78;
1332 : 20;
1333 : c9;
1334 : f8;
1335 : c8;
1336 : 48;
1337 : a9;
1338 : 7f;
1339 : 85;
133A : 78;
133B : 68;
133C : c5;
133D : 78;
133E : 20;
133F : d3;
1340 : f8;
1341 : c8;
1342 : a9;
1343 : 40;
1344 : 85;
1345 : 78;
1346 : 20;
1347 : 31;
1348 : f9;
1349 : e5;
134A : 78;
134B : 20;
134C : 37;
134D : f9;
134E : c8;
134F : a9;
1350 : 3f;
1351 : 85;
1352 : 78;
1353 : 20;
1354 : 47;
1355 : f9;
1356 : e5;
1357 : 78;
1358 : 20;
1359 : 4c;
135A : f9;
135B : c8;
135C : a9;
135D : 41;
135E : 85;
135F : 78;
1360 : 20;
1361 : 5c;
1362 : f9;
1363 : e5;
1364 : 78;
1365 : 20;
1366 : 62;
1367 : f9;
1368 : c8;
1369 : a9;
136A : 00;
136B : 85;
136C : 78;
136D : 20;
136E : 72;
136F : f9;
1370 : e5;
1371 : 78;
1372 : 20;
1373 : 76;
1374 : f9;
1375 : c8;
1376 : a9;
1377 : 7f;
1378 : 85;
1379 : 78;
137A : 20;
137B : 80;
137C : f9;
137D : e5;
137E : 78;
137F : 20;
1380 : 84;
1381 : f9;
1382 : c8;
1383 : a9;
1384 : 40;
1385 : 85;
1386 : 78;
1387 : 20;
1388 : 89;
1389 : f8;
138A : aa;
138B : e4;
138C : 78;
138D : 20;
138E : 8e;
138F : f8;
1390 : c8;
1391 : a9;
1392 : 3f;
1393 : 85;
1394 : 78;
1395 : 20;
1396 : 9a;
1397 : f8;
1398 : e4;
1399 : 78;
139A : 20;
139B : 9c;
139C : f8;
139D : c8;
139E : a9;
139F : 41;
13A0 : 85;
13A1 : 78;
13A2 : e4;
13A3 : 78;
13A4 : 20;
13A5 : a8;
13A6 : f8;
13A7 : c8;
13A8 : a9;
13A9 : 00;
13AA : 85;
13AB : 78;
13AC : 20;
13AD : b2;
13AE : f8;
13AF : aa;
13B0 : e4;
13B1 : 78;
13B2 : 20;
13B3 : b5;
13B4 : f8;
13B5 : c8;
13B6 : a9;
13B7 : 80;
13B8 : 85;
13B9 : 78;
13BA : e4;
13BB : 78;
13BC : 20;
13BD : bf;
13BE : f8;
13BF : c8;
13C0 : a9;
13C1 : 81;
13C2 : 85;
13C3 : 78;
13C4 : e4;
13C5 : 78;
13C6 : 20;
13C7 : c9;
13C8 : f8;
13C9 : c8;
13CA : a9;
13CB : 7f;
13CC : 85;
13CD : 78;
13CE : e4;
13CF : 78;
13D0 : 20;
13D1 : d3;
13D2 : f8;
13D3 : c8;
13D4 : 98;
13D5 : aa;
13D6 : a9;
13D7 : 40;
13D8 : 85;
13D9 : 78;
13DA : 20;
13DB : dd;
13DC : f8;
13DD : c4;
13DE : 78;
13DF : 20;
13E0 : e2;
13E1 : f8;
13E2 : e8;
13E3 : a9;
13E4 : 3f;
13E5 : 85;
13E6 : 78;
13E7 : 20;
13E8 : ee;
13E9 : f8;
13EA : c4;
13EB : 78;
13EC : 20;
13ED : f0;
13EE : f8;
13EF : e8;
13F0 : a9;
13F1 : 41;
13F2 : 85;
13F3 : 78;
13F4 : c4;
13F5 : 78;
13F6 : 20;
13F7 : fc;
13F8 : f8;
13F9 : e8;
13FA : a9;
13FB : 00;
13FC : 85;
13FD : 78;
13FE : 20;
13FF : 06;
1400 : f9;
1401 : c4;
1402 : 78;
1403 : 20;
1404 : 09;
1405 : f9;
1406 : e8;
1407 : a9;
1408 : 80;
1409 : 85;
140A : 78;
140B : c4;
140C : 78;
140D : 20;
140E : 13;
140F : f9;
1410 : e8;
1411 : a9;
1412 : 81;
1413 : 85;
1414 : 78;
1415 : c4;
1416 : 78;
1417 : 20;
1418 : 1d;
1419 : f9;
141A : e8;
141B : a9;
141C : 7f;
141D : 85;
141E : 78;
141F : c4;
1420 : 78;
1421 : 20;
1422 : 27;
1423 : f9;
1424 : e8;
1425 : 8a;
1426 : a8;
1427 : 20;
1428 : 90;
1429 : f9;
142A : 85;
142B : 78;
142C : 46;
142D : 78;
142E : a5;
142F : 78;
1430 : 20;
1431 : 9d;
1432 : f9;
1433 : c8;
1434 : 85;
1435 : 78;
1436 : 46;
1437 : 78;
1438 : a5;
1439 : 78;
143A : 20;
143B : ad;
143C : f9;
143D : c8;
143E : 20;
143F : bd;
1440 : f9;
1441 : 85;
1442 : 78;
1443 : 06;
1444 : 78;
1445 : a5;
1446 : 78;
1447 : 20;
1448 : c3;
1449 : f9;
144A : c8;
144B : 85;
144C : 78;
144D : 06;
144E : 78;
144F : a5;
1450 : 78;
1451 : 20;
1452 : d4;
1453 : f9;
1454 : c8;
1455 : 20;
1456 : e4;
1457 : f9;
1458 : 85;
1459 : 78;
145A : 66;
145B : 78;
145C : a5;
145D : 78;
145E : 20;
145F : ea;
1460 : f9;
1461 : c8;
1462 : 85;
1463 : 78;
1464 : 66;
1465 : 78;
1466 : a5;
1467 : 78;
1468 : 20;
1469 : fb;
146A : f9;
146B : c8;
146C : 20;
146D : 0a;
146E : fa;
146F : 85;
1470 : 78;
1471 : 26;
1472 : 78;
1473 : a5;
1474 : 78;
1475 : 20;
1476 : 10;
1477 : fa;
1478 : c8;
1479 : 85;
147A : 78;
147B : 26;
147C : 78;
147D : a5;
147E : 78;
147F : 20;
1480 : 21;
1481 : fa;
1482 : a9;
1483 : ff;
1484 : 85;
1485 : 78;
1486 : 85;
1487 : 01;
1488 : 24;
1489 : 01;
148A : 38;
148B : e6;
148C : 78;
148D : d0;
148E : 0c;
148F : 30;
1490 : 0a;
1491 : 50;
1492 : 08;
1493 : 90;
1494 : 06;
1495 : a5;
1496 : 78;
1497 : c9;
1498 : 00;
1499 : f0;
149A : 04;
149B : a9;
149C : ab;
149D : 85;
149E : 00;
149F : a9;
14A0 : 7f;
14A1 : 85;
14A2 : 78;
14A3 : b8;
14A4 : 18;
14A5 : e6;
14A6 : 78;
14A7 : f0;
14A8 : 0c;
14A9 : 10;
14AA : 0a;
14AB : 70;
14AC : 08;
14AD : b0;
14AE : 06;
14AF : a5;
14B0 : 78;
14B1 : c9;
14B2 : 80;
14B3 : f0;
14B4 : 04;
14B5 : a9;
14B6 : ac;
14B7 : 85;
14B8 : 00;
14B9 : a9;
14BA : 00;
14BB : 85;
14BC : 78;
14BD : 24;
14BE : 01;
14BF : 38;
14C0 : c6;
14C1 : 78;
14C2 : f0;
14C3 : 0c;
14C4 : 10;
14C5 : 0a;
14C6 : 50;
14C7 : 08;
14C8 : 90;
14C9 : 06;
14CA : a5;
14CB : 78;
14CC : c9;
14CD : ff;
14CE : f0;
14CF : 04;
14D0 : a9;
14D1 : ad;
14D2 : 85;
14D3 : 00;
14D4 : a9;
14D5 : 80;
14D6 : 85;
14D7 : 78;
14D8 : b8;
14D9 : 18;
14DA : c6;
14DB : 78;
14DC : f0;
14DD : 0c;
14DE : 30;
14DF : 0a;
14E0 : 70;
14E1 : 08;
14E2 : b0;
14E3 : 06;
14E4 : a5;
14E5 : 78;
14E6 : c9;
14E7 : 7f;
14E8 : f0;
14E9 : 04;
14EA : a9;
14EB : ae;
14EC : 85;
14ED : 00;
14EE : a9;
14EF : 01;
14F0 : 85;
14F1 : 78;
14F2 : c6;
14F3 : 78;
14F4 : f0;
14F5 : 04;
14F6 : a9;
14F7 : af;
14F8 : 85;
14F9 : 00;
14FA : 60;
14FB : a9;
14FC : 55;
14FD : 8d;
14FE : 78;
14FF : 06;
1500 : a9;
1501 : ff;
1502 : 85;
1503 : 01;
1504 : 24;
1505 : 01;
1506 : a0;
1507 : 11;
1508 : a2;
1509 : 23;
150A : a9;
150B : 00;
150C : ad;
150D : 78;
150E : 06;
150F : f0;
1510 : 10;
1511 : 30;
1512 : 0e;
1513 : c9;
1514 : 55;
1515 : d0;
1516 : 0a;
1517 : c0;
1518 : 11;
1519 : d0;
151A : 06;
151B : e0;
151C : 23;
151D : 50;
151E : 02;
151F : f0;
1520 : 04;
1521 : a9;
1522 : b0;
1523 : 85;
1524 : 00;
1525 : a9;
1526 : 46;
1527 : 24;
1528 : 01;
1529 : 8d;
152A : 78;
152B : 06;
152C : f0;
152D : 0b;
152E : 10;
152F : 09;
1530 : 50;
1531 : 07;
1532 : ad;
1533 : 78;
1534 : 06;
1535 : c9;
1536 : 46;
1537 : f0;
1538 : 04;
1539 : a9;
153A : b1;
153B : 85;
153C : 00;
153D : a9;
153E : 55;
153F : 8d;
1540 : 78;
1541 : 06;
1542 : 24;
1543 : 01;
1544 : a9;
1545 : 11;
1546 : a2;
1547 : 23;
1548 : a0;
1549 : 00;
154A : ac;
154B : 78;
154C : 06;
154D : f0;
154E : 10;
154F : 30;
1550 : 0e;
1551 : c0;
1552 : 55;
1553 : d0;
1554 : 0a;
1555 : c9;
1556 : 11;
1557 : d0;
1558 : 06;
1559 : e0;
155A : 23;
155B : 50;
155C : 02;
155D : f0;
155E : 04;
155F : a9;
1560 : b2;
1561 : 85;
1562 : 00;
1563 : a0;
1564 : 46;
1565 : 24;
1566 : 01;
1567 : 8c;
1568 : 78;
1569 : 06;
156A : f0;
156B : 0b;
156C : 10;
156D : 09;
156E : 50;
156F : 07;
1570 : ac;
1571 : 78;
1572 : 06;
1573 : c0;
1574 : 46;
1575 : f0;
1576 : 04;
1577 : a9;
1578 : b3;
1579 : 85;
157A : 00;
157B : 24;
157C : 01;
157D : a9;
157E : 55;
157F : 8d;
1580 : 78;
1581 : 06;
1582 : a0;
1583 : 11;
1584 : a9;
1585 : 23;
1586 : a2;
1587 : 00;
1588 : ae;
1589 : 78;
158A : 06;
158B : f0;
158C : 10;
158D : 30;
158E : 0e;
158F : e0;
1590 : 55;
1591 : d0;
1592 : 0a;
1593 : c0;
1594 : 11;
1595 : d0;
1596 : 06;
1597 : c9;
1598 : 23;
1599 : 50;
159A : 02;
159B : f0;
159C : 04;
159D : a9;
159E : b4;
159F : 85;
15A0 : 00;
15A1 : a2;
15A2 : 46;
15A3 : 24;
15A4 : 01;
15A5 : 8e;
15A6 : 78;
15A7 : 06;
15A8 : f0;
15A9 : 0b;
15AA : 10;
15AB : 09;
15AC : 50;
15AD : 07;
15AE : ae;
15AF : 78;
15B0 : 06;
15B1 : e0;
15B2 : 46;
15B3 : f0;
15B4 : 04;
15B5 : a9;
15B6 : b5;
15B7 : 85;
15B8 : 00;
15B9 : a9;
15BA : c0;
15BB : 8d;
15BC : 78;
15BD : 06;
15BE : a2;
15BF : 33;
15C0 : a0;
15C1 : 88;
15C2 : a9;
15C3 : 05;
15C4 : 2c;
15C5 : 78;
15C6 : 06;
15C7 : 10;
15C8 : 10;
15C9 : 50;
15CA : 0e;
15CB : d0;
15CC : 0c;
15CD : c9;
15CE : 05;
15CF : d0;
15D0 : 08;
15D1 : e0;
15D2 : 33;
15D3 : d0;
15D4 : 04;
15D5 : c0;
15D6 : 88;
15D7 : f0;
15D8 : 04;
15D9 : a9;
15DA : b6;
15DB : 85;
15DC : 00;
15DD : a9;
15DE : 03;
15DF : 8d;
15E0 : 78;
15E1 : 06;
15E2 : a9;
15E3 : 01;
15E4 : 2c;
15E5 : 78;
15E6 : 06;
15E7 : 30;
15E8 : 08;
15E9 : 70;
15EA : 06;
15EB : f0;
15EC : 04;
15ED : c9;
15EE : 01;
15EF : f0;
15F0 : 04;
15F1 : a9;
15F2 : b7;
15F3 : 85;
15F4 : 00;
15F5 : a0;
15F6 : b8;
15F7 : a9;
15F8 : aa;
15F9 : 8d;
15FA : 78;
15FB : 06;
15FC : 20;
15FD : b6;
15FE : f7;
15FF : 0d;
1600 : 78;
1601 : 06;
1602 : 20;
1603 : c0;
1604 : f7;
1605 : c8;
1606 : a9;
1607 : 00;
1608 : 8d;
1609 : 78;
160A : 06;
160B : 20;
160C : ce;
160D : f7;
160E : 0d;
160F : 78;
1610 : 06;
1611 : 20;
1612 : d3;
1613 : f7;
1614 : c8;
1615 : a9;
1616 : aa;
1617 : 8d;
1618 : 78;
1619 : 06;
161A : 20;
161B : df;
161C : f7;
161D : 2d;
161E : 78;
161F : 06;
1620 : 20;
1621 : e5;
1622 : f7;
1623 : c8;
1624 : a9;
1625 : ef;
1626 : 8d;
1627 : 78;
1628 : 06;
1629 : 20;
162A : f1;
162B : f7;
162C : 2d;
162D : 78;
162E : 06;
162F : 20;
1630 : f6;
1631 : f7;
1632 : c8;
1633 : a9;
1634 : aa;
1635 : 8d;
1636 : 78;
1637 : 06;
1638 : 20;
1639 : 04;
163A : f8;
163B : 4d;
163C : 78;
163D : 06;
163E : 20;
163F : 0a;
1640 : f8;
1641 : c8;
1642 : a9;
1643 : 70;
1644 : 8d;
1645 : 78;
1646 : 06;
1647 : 20;
1648 : 18;
1649 : f8;
164A : 4d;
164B : 78;
164C : 06;
164D : 20;
164E : 1d;
164F : f8;
1650 : c8;
1651 : a9;
1652 : 69;
1653 : 8d;
1654 : 78;
1655 : 06;
1656 : 20;
1657 : 29;
1658 : f8;
1659 : 6d;
165A : 78;
165B : 06;
165C : 20;
165D : 2f;
165E : f8;
165F : c8;
1660 : 20;
1661 : 3d;
1662 : f8;
1663 : 6d;
1664 : 78;
1665 : 06;
1666 : 20;
1667 : 43;
1668 : f8;
1669 : c8;
166A : a9;
166B : 7f;
166C : 8d;
166D : 78;
166E : 06;
166F : 20;
1670 : 51;
1671 : f8;
1672 : 6d;
1673 : 78;
1674 : 06;
1675 : 20;
1676 : 56;
1677 : f8;
1678 : c8;
1679 : a9;
167A : 80;
167B : 8d;
167C : 78;
167D : 06;
167E : 20;
167F : 64;
1680 : f8;
1681 : 6d;
1682 : 78;
1683 : 06;
1684 : 20;
1685 : 6a;
1686 : f8;
1687 : c8;
1688 : 20;
1689 : 78;
168A : f8;
168B : 6d;
168C : 78;
168D : 06;
168E : 20;
168F : 7d;
1690 : f8;
1691 : c8;
1692 : a9;
1693 : 40;
1694 : 8d;
1695 : 78;
1696 : 06;
1697 : 20;
1698 : 89;
1699 : f8;
169A : cd;
169B : 78;
169C : 06;
169D : 20;
169E : 8e;
169F : f8;
16A0 : c8;
16A1 : 48;
16A2 : a9;
16A3 : 3f;
16A4 : 8d;
16A5 : 78;
16A6 : 06;
16A7 : 68;
16A8 : 20;
16A9 : 9a;
16AA : f8;
16AB : cd;
16AC : 78;
16AD : 06;
16AE : 20;
16AF : 9c;
16B0 : f8;
16B1 : c8;
16B2 : 48;
16B3 : a9;
16B4 : 41;
16B5 : 8d;
16B6 : 78;
16B7 : 06;
16B8 : 68;
16B9 : cd;
16BA : 78;
16BB : 06;
16BC : 20;
16BD : a8;
16BE : f8;
16BF : c8;
16C0 : 48;
16C1 : a9;
16C2 : 00;
16C3 : 8d;
16C4 : 78;
16C5 : 06;
16C6 : 68;
16C7 : 20;
16C8 : b2;
16C9 : f8;
16CA : cd;
16CB : 78;
16CC : 06;
16CD : 20;
16CE : b5;
16CF : f8;
16D0 : c8;
16D1 : 48;
16D2 : a9;
16D3 : 80;
16D4 : 8d;
16D5 : 78;
16D6 : 06;
16D7 : 68;
16D8 : cd;
16D9 : 78;
16DA : 06;
16DB : 20;
16DC : bf;
16DD : f8;
16DE : c8;
16DF : 48;
16E0 : a9;
16E1 : 81;
16E2 : 8d;
16E3 : 78;
16E4 : 06;
16E5 : 68;
16E6 : cd;
16E7 : 78;
16E8 : 06;
16E9 : 20;
16EA : c9;
16EB : f8;
16EC : c8;
16ED : 48;
16EE : a9;
16EF : 7f;
16F0 : 8d;
16F1 : 78;
16F2 : 06;
16F3 : 68;
16F4 : cd;
16F5 : 78;
16F6 : 06;
16F7 : 20;
16F8 : d3;
16F9 : f8;
16FA : c8;
16FB : a9;
16FC : 40;
16FD : 8d;
16FE : 78;
16FF : 06;
1700 : 20;
1701 : 31;
1702 : f9;
1703 : ed;
1704 : 78;
1705 : 06;
1706 : 20;
1707 : 37;
1708 : f9;
1709 : c8;
170A : a9;
170B : 3f;
170C : 8d;
170D : 78;
170E : 06;
170F : 20;
1710 : 47;
1711 : f9;
1712 : ed;
1713 : 78;
1714 : 06;
1715 : 20;
1716 : 4c;
1717 : f9;
1718 : c8;
1719 : a9;
171A : 41;
171B : 8d;
171C : 78;
171D : 06;
171E : 20;
171F : 5c;
1720 : f9;
1721 : ed;
1722 : 78;
1723 : 06;
1724 : 20;
1725 : 62;
1726 : f9;
1727 : c8;
1728 : a9;
1729 : 00;
172A : 8d;
172B : 78;
172C : 06;
172D : 20;
172E : 72;
172F : f9;
1730 : ed;
1731 : 78;
1732 : 06;
1733 : 20;
1734 : 76;
1735 : f9;
1736 : c8;
1737 : a9;
1738 : 7f;
1739 : 8d;
173A : 78;
173B : 06;
173C : 20;
173D : 80;
173E : f9;
173F : ed;
1740 : 78;
1741 : 06;
1742 : 20;
1743 : 84;
1744 : f9;
1745 : c8;
1746 : a9;
1747 : 40;
1748 : 8d;
1749 : 78;
174A : 06;
174B : 20;
174C : 89;
174D : f8;
174E : aa;
174F : ec;
1750 : 78;
1751 : 06;
1752 : 20;
1753 : 8e;
1754 : f8;
1755 : c8;
1756 : a9;
1757 : 3f;
1758 : 8d;
1759 : 78;
175A : 06;
175B : 20;
175C : 9a;
175D : f8;
175E : ec;
175F : 78;
1760 : 06;
1761 : 20;
1762 : 9c;
1763 : f8;
1764 : c8;
1765 : a9;
1766 : 41;
1767 : 8d;
1768 : 78;
1769 : 06;
176A : ec;
176B : 78;
176C : 06;
176D : 20;
176E : a8;
176F : f8;
1770 : c8;
1771 : a9;
1772 : 00;
1773 : 8d;
1774 : 78;
1775 : 06;
1776 : 20;
1777 : b2;
1778 : f8;
1779 : aa;
177A : ec;
177B : 78;
177C : 06;
177D : 20;
177E : b5;
177F : f8;
1780 : c8;
1781 : a9;
1782 : 80;
1783 : 8d;
1784 : 78;
1785 : 06;
1786 : ec;
1787 : 78;
1788 : 06;
1789 : 20;
178A : bf;
178B : f8;
178C : c8;
178D : a9;
178E : 81;
178F : 8d;
1790 : 78;
1791 : 06;
1792 : ec;
1793 : 78;
1794 : 06;
1795 : 20;
1796 : c9;
1797 : f8;
1798 : c8;
1799 : a9;
179A : 7f;
179B : 8d;
179C : 78;
179D : 06;
179E : ec;
179F : 78;
17A0 : 06;
17A1 : 20;
17A2 : d3;
17A3 : f8;
17A4 : c8;
17A5 : 98;
17A6 : aa;
17A7 : a9;
17A8 : 40;
17A9 : 8d;
17AA : 78;
17AB : 06;
17AC : 20;
17AD : dd;
17AE : f8;
17AF : cc;
17B0 : 78;
17B1 : 06;
17B2 : 20;
17B3 : e2;
17B4 : f8;
17B5 : e8;
17B6 : a9;
17B7 : 3f;
17B8 : 8d;
17B9 : 78;
17BA : 06;
17BB : 20;
17BC : ee;
17BD : f8;
17BE : cc;
17BF : 78;
17C0 : 06;
17C1 : 20;
17C2 : f0;
17C3 : f8;
17C4 : e8;
17C5 : a9;
17C6 : 41;
17C7 : 8d;
17C8 : 78;
17C9 : 06;
17CA : cc;
17CB : 78;
17CC : 06;
17CD : 20;
17CE : fc;
17CF : f8;
17D0 : e8;
17D1 : a9;
17D2 : 00;
17D3 : 8d;
17D4 : 78;
17D5 : 06;
17D6 : 20;
17D7 : 06;
17D8 : f9;
17D9 : cc;
17DA : 78;
17DB : 06;
17DC : 20;
17DD : 09;
17DE : f9;
17DF : e8;
17E0 : a9;
17E1 : 80;
17E2 : 8d;
17E3 : 78;
17E4 : 06;
17E5 : cc;
17E6 : 78;
17E7 : 06;
17E8 : 20;
17E9 : 13;
17EA : f9;
17EB : e8;
17EC : a9;
17ED : 81;
17EE : 8d;
17EF : 78;
17F0 : 06;
17F1 : cc;
17F2 : 78;
17F3 : 06;
17F4 : 20;
17F5 : 1d;
17F6 : f9;
17F7 : e8;
17F8 : a9;
17F9 : 7f;
17FA : 8d;
17FB : 78;
17FC : 06;
17FD : cc;
17FE : 78;
17FF : 06;
1800 : 20;
1801 : 27;
1802 : f9;
1803 : e8;
1804 : 8a;
1805 : a8;
1806 : 20;
1807 : 90;
1808 : f9;
1809 : 8d;
180A : 78;
180B : 06;
180C : 4e;
180D : 78;
180E : 06;
180F : ad;
1810 : 78;
1811 : 06;
1812 : 20;
1813 : 9d;
1814 : f9;
1815 : c8;
1816 : 8d;
1817 : 78;
1818 : 06;
1819 : 4e;
181A : 78;
181B : 06;
181C : ad;
181D : 78;
181E : 06;
181F : 20;
1820 : ad;
1821 : f9;
1822 : c8;
1823 : 20;
1824 : bd;
1825 : f9;
1826 : 8d;
1827 : 78;
1828 : 06;
1829 : 0e;
182A : 78;
182B : 06;
182C : ad;
182D : 78;
182E : 06;
182F : 20;
1830 : c3;
1831 : f9;
1832 : c8;
1833 : 8d;
1834 : 78;
1835 : 06;
1836 : 0e;
1837 : 78;
1838 : 06;
1839 : ad;
183A : 78;
183B : 06;
183C : 20;
183D : d4;
183E : f9;
183F : c8;
1840 : 20;
1841 : e4;
1842 : f9;
1843 : 8d;
1844 : 78;
1845 : 06;
1846 : 6e;
1847 : 78;
1848 : 06;
1849 : ad;
184A : 78;
184B : 06;
184C : 20;
184D : ea;
184E : f9;
184F : c8;
1850 : 8d;
1851 : 78;
1852 : 06;
1853 : 6e;
1854 : 78;
1855 : 06;
1856 : ad;
1857 : 78;
1858 : 06;
1859 : 20;
185A : fb;
185B : f9;
185C : c8;
185D : 20;
185E : 0a;
185F : fa;
1860 : 8d;
1861 : 78;
1862 : 06;
1863 : 2e;
1864 : 78;
1865 : 06;
1866 : ad;
1867 : 78;
1868 : 06;
1869 : 20;
186A : 10;
186B : fa;
186C : c8;
186D : 8d;
186E : 78;
186F : 06;
1870 : 2e;
1871 : 78;
1872 : 06;
1873 : ad;
1874 : 78;
1875 : 06;
1876 : 20;
1877 : 21;
1878 : fa;
1879 : a9;
187A : ff;
187B : 8d;
187C : 78;
187D : 06;
187E : 85;
187F : 01;
1880 : 24;
1881 : 01;
1882 : 38;
1883 : ee;
1884 : 78;
1885 : 06;
1886 : d0;
1887 : 0d;
1888 : 30;
1889 : 0b;
188A : 50;
188B : 09;
188C : 90;
188D : 07;
188E : ad;
188F : 78;
1890 : 06;
1891 : c9;
1892 : 00;
1893 : f0;
1894 : 04;
1895 : a9;
1896 : e5;
1897 : 85;
1898 : 00;
1899 : a9;
189A : 7f;
189B : 8d;
189C : 78;
189D : 06;
189E : b8;
189F : 18;
18A0 : ee;
18A1 : 78;
18A2 : 06;
18A3 : f0;
18A4 : 0d;
18A5 : 10;
18A6 : 0b;
18A7 : 70;
18A8 : 09;
18A9 : b0;
18AA : 07;
18AB : ad;
18AC : 78;
18AD : 06;
18AE : c9;
18AF : 80;
18B0 : f0;
18B1 : 04;
18B2 : a9;
18B3 : e6;
18B4 : 85;
18B5 : 00;
18B6 : a9;
18B7 : 00;
18B8 : 8d;
18B9 : 78;
18BA : 06;
18BB : 24;
18BC : 01;
18BD : 38;
18BE : ce;
18BF : 78;
18C0 : 06;
18C1 : f0;
18C2 : 0d;
18C3 : 10;
18C4 : 0b;
18C5 : 50;
18C6 : 09;
18C7 : 90;
18C8 : 07;
18C9 : ad;
18CA : 78;
18CB : 06;
18CC : c9;
18CD : ff;
18CE : f0;
18CF : 04;
18D0 : a9;
18D1 : e7;
18D2 : 85;
18D3 : 00;
18D4 : a9;
18D5 : 80;
18D6 : 8d;
18D7 : 78;
18D8 : 06;
18D9 : b8;
18DA : 18;
18DB : ce;
18DC : 78;
18DD : 06;
18DE : f0;
18DF : 0d;
18E0 : 30;
18E1 : 0b;
18E2 : 70;
18E3 : 09;
18E4 : b0;
18E5 : 07;
18E6 : ad;
18E7 : 78;
18E8 : 06;
18E9 : c9;
18EA : 7f;
18EB : f0;
18EC : 04;
18ED : a9;
18EE : e8;
18EF : 85;
18F0 : 00;
18F1 : a9;
18F2 : 01;
18F3 : 8d;
18F4 : 78;
18F5 : 06;
18F6 : ce;
18F7 : 78;
18F8 : 06;
18F9 : f0;
18FA : 04;
18FB : a9;
18FC : e9;
18FD : 85;
18FE : 00;
18FF : 60;
1900 : a9;
1901 : a3;
1902 : 85;
1903 : 33;
1904 : a9;
1905 : 89;
1906 : 8d;
1907 : 00;
1908 : 03;
1909 : a9;
190A : 12;
190B : 8d;
190C : 45;
190D : 02;
190E : a9;
190F : ff;
1910 : 85;
1911 : 01;
1912 : a2;
1913 : 65;
1914 : a9;
1915 : 00;
1916 : 85;
1917 : 89;
1918 : a9;
1919 : 03;
191A : 85;
191B : 8a;
191C : a0;
191D : 00;
191E : 38;
191F : a9;
1920 : 00;
1921 : b8;
1922 : b1;
1923 : 89;
1924 : f0;
1925 : 0c;
1926 : 90;
1927 : 0a;
1928 : 70;
1929 : 08;
192A : c9;
192B : 89;
192C : d0;
192D : 04;
192E : e0;
192F : 65;
1930 : f0;
1931 : 04;
1932 : a9;
1933 : ea;
1934 : 85;
1935 : 00;
1936 : a9;
1937 : ff;
1938 : 85;
1939 : 97;
193A : 85;
193B : 98;
193C : 24;
193D : 98;
193E : a0;
193F : 34;
1940 : b1;
1941 : 97;
1942 : c9;
1943 : a3;
1944 : d0;
1945 : 02;
1946 : b0;
1947 : 04;
1948 : a9;
1949 : eb;
194A : 85;
194B : 00;
194C : a5;
194D : 00;
194E : 48;
194F : a9;
1950 : 46;
1951 : 85;
1952 : ff;
1953 : a9;
1954 : 01;
1955 : 85;
1956 : 00;
1957 : a0;
1958 : ff;
1959 : b1;
195A : ff;
195B : c9;
195C : 12;
195D : f0;
195E : 04;
195F : 68;
1960 : a9;
1961 : ec;
1962 : 48;
1963 : 68;
1964 : 85;
1965 : 00;
1966 : a2;
1967 : ed;
1968 : a9;
1969 : 00;
196A : 85;
196B : 33;
196C : a9;
196D : 04;
196E : 85;
196F : 34;
1970 : a0;
1971 : 00;
1972 : 18;
1973 : a9;
1974 : ff;
1975 : 85;
1976 : 01;
1977 : 24;
1978 : 01;
1979 : a9;
197A : aa;
197B : 8d;
197C : 00;
197D : 04;
197E : a9;
197F : 55;
1980 : 11;
1981 : 33;
1982 : b0;
1983 : 08;
1984 : 10;
1985 : 06;
1986 : c9;
1987 : ff;
1988 : d0;
1989 : 02;
198A : 70;
198B : 02;
198C : 86;
198D : 00;
198E : e8;
198F : 38;
1990 : b8;
1991 : a9;
1992 : 00;
1993 : 11;
1994 : 33;
1995 : f0;
1996 : 06;
1997 : 70;
1998 : 04;
1999 : 90;
199A : 02;
199B : 30;
199C : 02;
199D : 86;
199E : 00;
199F : e8;
19A0 : 18;
19A1 : 24;
19A2 : 01;
19A3 : a9;
19A4 : 55;
19A5 : 31;
19A6 : 33;
19A7 : d0;
19A8 : 06;
19A9 : 50;
19AA : 04;
19AB : b0;
19AC : 02;
19AD : 10;
19AE : 02;
19AF : 86;
19B0 : 00;
19B1 : e8;
19B2 : 38;
19B3 : b8;
19B4 : a9;
19B5 : ef;
19B6 : 8d;
19B7 : 00;
19B8 : 04;
19B9 : a9;
19BA : f8;
19BB : 31;
19BC : 33;
19BD : 90;
19BE : 08;
19BF : 10;
19C0 : 06;
19C1 : c9;
19C2 : e8;
19C3 : d0;
19C4 : 02;
19C5 : 50;
19C6 : 02;
19C7 : 86;
19C8 : 00;
19C9 : e8;
19CA : 18;
19CB : 24;
19CC : 01;
19CD : a9;
19CE : aa;
19CF : 8d;
19D0 : 00;
19D1 : 04;
19D2 : a9;
19D3 : 5f;
19D4 : 51;
19D5 : 33;
19D6 : b0;
19D7 : 08;
19D8 : 10;
19D9 : 06;
19DA : c9;
19DB : f5;
19DC : d0;
19DD : 02;
19DE : 70;
19DF : 02;
19E0 : 86;
19E1 : 00;
19E2 : e8;
19E3 : 38;
19E4 : b8;
19E5 : a9;
19E6 : 70;
19E7 : 8d;
19E8 : 00;
19E9 : 04;
19EA : 51;
19EB : 33;
19EC : d0;
19ED : 06;
19EE : 70;
19EF : 04;
19F0 : 90;
19F1 : 02;
19F2 : 10;
19F3 : 02;
19F4 : 86;
19F5 : 00;
19F6 : e8;
19F7 : 18;
19F8 : 24;
19F9 : 01;
19FA : a9;
19FB : 69;
19FC : 8d;
19FD : 00;
19FE : 04;
19FF : a9;
1A00 : 00;
1A01 : 71;
1A02 : 33;
1A03 : 30;
1A04 : 08;
1A05 : b0;
1A06 : 06;
1A07 : c9;
1A08 : 69;
1A09 : d0;
1A0A : 02;
1A0B : 50;
1A0C : 02;
1A0D : 86;
1A0E : 00;
1A0F : e8;
1A10 : 38;
1A11 : 24;
1A12 : 01;
1A13 : a9;
1A14 : 00;
1A15 : 71;
1A16 : 33;
1A17 : 30;
1A18 : 08;
1A19 : b0;
1A1A : 06;
1A1B : c9;
1A1C : 6a;
1A1D : d0;
1A1E : 02;
1A1F : 50;
1A20 : 02;
1A21 : 86;
1A22 : 00;
1A23 : e8;
1A24 : 38;
1A25 : b8;
1A26 : a9;
1A27 : 7f;
1A28 : 8d;
1A29 : 00;
1A2A : 04;
1A2B : 71;
1A2C : 33;
1A2D : 10;
1A2E : 08;
1A2F : b0;
1A30 : 06;
1A31 : c9;
1A32 : ff;
1A33 : d0;
1A34 : 02;
1A35 : 70;
1A36 : 02;
1A37 : 86;
1A38 : 00;
1A39 : e8;
1A3A : 18;
1A3B : 24;
1A3C : 01;
1A3D : a9;
1A3E : 80;
1A3F : 8d;
1A40 : 00;
1A41 : 04;
1A42 : a9;
1A43 : 7f;
1A44 : 71;
1A45 : 33;
1A46 : 10;
1A47 : 08;
1A48 : b0;
1A49 : 06;
1A4A : c9;
1A4B : ff;
1A4C : d0;
1A4D : 02;
1A4E : 50;
1A4F : 02;
1A50 : 86;
1A51 : 00;
1A52 : e8;
1A53 : 38;
1A54 : b8;
1A55 : a9;
1A56 : 80;
1A57 : 8d;
1A58 : 00;
1A59 : 04;
1A5A : a9;
1A5B : 7f;
1A5C : 71;
1A5D : 33;
1A5E : d0;
1A5F : 06;
1A60 : 30;
1A61 : 04;
1A62 : 70;
1A63 : 02;
1A64 : b0;
1A65 : 02;
1A66 : 86;
1A67 : 00;
1A68 : e8;
1A69 : 24;
1A6A : 01;
1A6B : a9;
1A6C : 40;
1A6D : 8d;
1A6E : 00;
1A6F : 04;
1A70 : d1;
1A71 : 33;
1A72 : 30;
1A73 : 06;
1A74 : 90;
1A75 : 04;
1A76 : d0;
1A77 : 02;
1A78 : 70;
1A79 : 02;
1A7A : 86;
1A7B : 00;
1A7C : e8;
1A7D : b8;
1A7E : ce;
1A7F : 00;
1A80 : 04;
1A81 : d1;
1A82 : 33;
1A83 : f0;
1A84 : 06;
1A85 : 30;
1A86 : 04;
1A87 : 90;
1A88 : 02;
1A89 : 50;
1A8A : 02;
1A8B : 86;
1A8C : 00;
1A8D : e8;
1A8E : ee;
1A8F : 00;
1A90 : 04;
1A91 : ee;
1A92 : 00;
1A93 : 04;
1A94 : d1;
1A95 : 33;
1A96 : f0;
1A97 : 02;
1A98 : 30;
1A99 : 02;
1A9A : 86;
1A9B : 00;
1A9C : e8;
1A9D : a9;
1A9E : 00;
1A9F : 8d;
1AA0 : 00;
1AA1 : 04;
1AA2 : a9;
1AA3 : 80;
1AA4 : d1;
1AA5 : 33;
1AA6 : f0;
1AA7 : 04;
1AA8 : 10;
1AA9 : 02;
1AAA : b0;
1AAB : 02;
1AAC : 86;
1AAD : 00;
1AAE : e8;
1AAF : a0;
1AB0 : 80;
1AB1 : 8c;
1AB2 : 00;
1AB3 : 04;
1AB4 : a0;
1AB5 : 00;
1AB6 : d1;
1AB7 : 33;
1AB8 : d0;
1AB9 : 04;
1ABA : 30;
1ABB : 02;
1ABC : b0;
1ABD : 02;
1ABE : 86;
1ABF : 00;
1AC0 : e8;
1AC1 : ee;
1AC2 : 00;
1AC3 : 04;
1AC4 : d1;
1AC5 : 33;
1AC6 : b0;
1AC7 : 04;
1AC8 : f0;
1AC9 : 02;
1ACA : 30;
1ACB : 02;
1ACC : 86;
1ACD : 00;
1ACE : e8;
1ACF : ce;
1AD0 : 00;
1AD1 : 04;
1AD2 : ce;
1AD3 : 00;
1AD4 : 04;
1AD5 : d1;
1AD6 : 33;
1AD7 : 90;
1AD8 : 04;
1AD9 : f0;
1ADA : 02;
1ADB : 10;
1ADC : 02;
1ADD : 86;
1ADE : 00;
1ADF : 60;
1AE0 : a9;
1AE1 : 00;
1AE2 : 85;
1AE3 : 33;
1AE4 : a9;
1AE5 : 04;
1AE6 : 85;
1AE7 : 34;
1AE8 : a0;
1AE9 : 00;
1AEA : a2;
1AEB : 01;
1AEC : 24;
1AED : 01;
1AEE : a9;
1AEF : 40;
1AF0 : 8d;
1AF1 : 00;
1AF2 : 04;
1AF3 : 38;
1AF4 : f1;
1AF5 : 33;
1AF6 : 30;
1AF7 : 0a;
1AF8 : 90;
1AF9 : 08;
1AFA : d0;
1AFB : 06;
1AFC : 70;
1AFD : 04;
1AFE : c9;
1AFF : 00;
1B00 : f0;
1B01 : 02;
1B02 : 86;
1B03 : 00;
1B04 : e8;
1B05 : b8;
1B06 : 38;
1B07 : a9;
1B08 : 40;
1B09 : ce;
1B0A : 00;
1B0B : 04;
1B0C : f1;
1B0D : 33;
1B0E : f0;
1B0F : 0a;
1B10 : 30;
1B11 : 08;
1B12 : 90;
1B13 : 06;
1B14 : 70;
1B15 : 04;
1B16 : c9;
1B17 : 01;
1B18 : f0;
1B19 : 02;
1B1A : 86;
1B1B : 00;
1B1C : e8;
1B1D : a9;
1B1E : 40;
1B1F : 38;
1B20 : 24;
1B21 : 01;
1B22 : ee;
1B23 : 00;
1B24 : 04;
1B25 : ee;
1B26 : 00;
1B27 : 04;
1B28 : f1;
1B29 : 33;
1B2A : b0;
1B2B : 0a;
1B2C : f0;
1B2D : 08;
1B2E : 10;
1B2F : 06;
1B30 : 70;
1B31 : 04;
1B32 : c9;
1B33 : ff;
1B34 : f0;
1B35 : 02;
1B36 : 86;
1B37 : 00;
1B38 : e8;
1B39 : 18;
1B3A : a9;
1B3B : 00;
1B3C : 8d;
1B3D : 00;
1B3E : 04;
1B3F : a9;
1B40 : 80;
1B41 : f1;
1B42 : 33;
1B43 : 90;
1B44 : 04;
1B45 : c9;
1B46 : 7f;
1B47 : f0;
1B48 : 02;
1B49 : 86;
1B4A : 00;
1B4B : e8;
1B4C : 38;
1B4D : a9;
1B4E : 7f;
1B4F : 8d;
1B50 : 00;
1B51 : 04;
1B52 : a9;
1B53 : 81;
1B54 : f1;
1B55 : 33;
1B56 : 50;
1B57 : 06;
1B58 : 90;
1B59 : 04;
1B5A : c9;
1B5B : 02;
1B5C : f0;
1B5D : 02;
1B5E : 86;
1B5F : 00;
1B60 : e8;
1B61 : a9;
1B62 : 00;
1B63 : a9;
1B64 : 87;
1B65 : 91;
1B66 : 33;
1B67 : ad;
1B68 : 00;
1B69 : 04;
1B6A : c9;
1B6B : 87;
1B6C : f0;
1B6D : 02;
1B6E : 86;
1B6F : 00;
1B70 : e8;
1B71 : a9;
1B72 : 7e;
1B73 : 8d;
1B74 : 00;
1B75 : 02;
1B76 : a9;
1B77 : db;
1B78 : 8d;
1B79 : 01;
1B7A : 02;
1B7B : 6c;
1B7C : 00;
1B7D : 02;
1B7E : a9;
1B7F : 00;
1B80 : 8d;
1B81 : ff;
1B82 : 02;
1B83 : a9;
1B84 : 01;
1B85 : 8d;
1B86 : 00;
1B87 : 03;
1B88 : a9;
1B89 : 03;
1B8A : 8d;
1B8B : 00;
1B8C : 02;
1B8D : a9;
1B8E : a9;
1B8F : 8d;
1B90 : 00;
1B91 : 01;
1B92 : a9;
1B93 : 55;
1B94 : 8d;
1B95 : 01;
1B96 : 01;
1B97 : a9;
1B98 : 60;
1B99 : 8d;
1B9A : 02;
1B9B : 01;
1B9C : a9;
1B9D : a9;
1B9E : 8d;
1B9F : 00;
1BA0 : 03;
1BA1 : a9;
1BA2 : aa;
1BA3 : 8d;
1BA4 : 01;
1BA5 : 03;
1BA6 : a9;
1BA7 : 60;
1BA8 : 8d;
1BA9 : 02;
1BAA : 03;
1BAB : 20;
1BAC : b5;
1BAD : db;
1BAE : c9;
1BAF : aa;
1BB0 : f0;
1BB1 : 02;
1BB2 : 86;
1BB3 : 00;
1BB4 : 60;
1BB5 : 6c;
1BB6 : ff;
1BB7 : 02;
1BB8 : a9;
1BB9 : ff;
1BBA : 85;
1BBB : 01;
1BBC : a9;
1BBD : aa;
1BBE : 85;
1BBF : 33;
1BC0 : a9;
1BC1 : bb;
1BC2 : 85;
1BC3 : 89;
1BC4 : a2;
1BC5 : 00;
1BC6 : a9;
1BC7 : 66;
1BC8 : 24;
1BC9 : 01;
1BCA : 38;
1BCB : a0;
1BCC : 00;
1BCD : b4;
1BCE : 33;
1BCF : 10;
1BD0 : 12;
1BD1 : f0;
1BD2 : 10;
1BD3 : 50;
1BD4 : 0e;
1BD5 : 90;
1BD6 : 0c;
1BD7 : c9;
1BD8 : 66;
1BD9 : d0;
1BDA : 08;
1BDB : e0;
1BDC : 00;
1BDD : d0;
1BDE : 04;
1BDF : c0;
1BE0 : aa;
1BE1 : f0;
1BE2 : 04;
1BE3 : a9;
1BE4 : 08;
1BE5 : 85;
1BE6 : 00;
1BE7 : a2;
1BE8 : 8a;
1BE9 : a9;
1BEA : 66;
1BEB : b8;
1BEC : 18;
1BED : a0;
1BEE : 00;
1BEF : b4;
1BF0 : ff;
1BF1 : 10;
1BF2 : 12;
1BF3 : f0;
1BF4 : 10;
1BF5 : 70;
1BF6 : 0e;
1BF7 : b0;
1BF8 : 0c;
1BF9 : c0;
1BFA : bb;
1BFB : d0;
1BFC : 08;
1BFD : c9;
1BFE : 66;
1BFF : d0;
1C00 : 04;
1C01 : e0;
1C02 : 8a;
1C03 : f0;
1C04 : 04;
1C05 : a9;
1C06 : 09;
1C07 : 85;
1C08 : 00;
1C09 : 24;
1C0A : 01;
1C0B : 38;
1C0C : a0;
1C0D : 44;
1C0E : a2;
1C0F : 00;
1C10 : 94;
1C11 : 33;
1C12 : a5;
1C13 : 33;
1C14 : 90;
1C15 : 18;
1C16 : c9;
1C17 : 44;
1C18 : d0;
1C19 : 14;
1C1A : 50;
1C1B : 12;
1C1C : 18;
1C1D : b8;
1C1E : a0;
1C1F : 99;
1C20 : a2;
1C21 : 80;
1C22 : 94;
1C23 : 85;
1C24 : a5;
1C25 : 05;
1C26 : b0;
1C27 : 06;
1C28 : c9;
1C29 : 99;
1C2A : d0;
1C2B : 02;
1C2C : 50;
1C2D : 04;
1C2E : a9;
1C2F : 0a;
1C30 : 85;
1C31 : 00;
1C32 : a0;
1C33 : 0b;
1C34 : a9;
1C35 : aa;
1C36 : a2;
1C37 : 78;
1C38 : 85;
1C39 : 78;
1C3A : 20;
1C3B : b6;
1C3C : f7;
1C3D : 15;
1C3E : 00;
1C3F : 20;
1C40 : c0;
1C41 : f7;
1C42 : c8;
1C43 : a9;
1C44 : 00;
1C45 : 85;
1C46 : 78;
1C47 : 20;
1C48 : ce;
1C49 : f7;
1C4A : 15;
1C4B : 00;
1C4C : 20;
1C4D : d3;
1C4E : f7;
1C4F : c8;
1C50 : a9;
1C51 : aa;
1C52 : 85;
1C53 : 78;
1C54 : 20;
1C55 : df;
1C56 : f7;
1C57 : 35;
1C58 : 00;
1C59 : 20;
1C5A : e5;
1C5B : f7;
1C5C : c8;
1C5D : a9;
1C5E : ef;
1C5F : 85;
1C60 : 78;
1C61 : 20;
[...]
78E7 : 03;
78E8 : 50;
78E9 : 01;
78EA : 60;
78EB : 86;
78EC : 00;
78ED : 60;
78EE : b8;
78EF : 60;
78F0 : f0;
78F1 : 07;
78F2 : 30;
78F3 : 05;
78F4 : 90;
78F5 : 03;
78F6 : 70;
78F7 : 01;
78F8 : 60;
78F9 : 86;
78FA : 00;
78FB : 60;
78FC : f0;
78FD : 05;
78FE : 10;
78FF : 03;
7900 : 10;
7901 : 01;
7902 : 60;
7903 : 86;
7904 : 00;
7905 : 60;
7906 : a0;
7907 : 80;
7908 : 60;
7909 : f0;
790A : 05;
790B : 10;
790C : 03;
790D : 90;
790E : 01;
790F : 60;
7910 : 86;
7911 : 00;
7912 : 60;
7913 : d0;
7914 : 05;
7915 : 30;
7916 : 03;
7917 : 90;
7918 : 01;
7919 : 60;
791A : 86;
791B : 00;
791C : 60;
791D : b0;
791E : 05;
791F : f0;
7920 : 03;
7921 : 10;
7922 : 01;
7923 : 60;
7924 : 86;
7925 : 00;
7926 : 60;
7927 : 90;
7928 : 05;
7929 : f0;
792A : 03;
792B : 30;
792C : 01;
792D : 60;
792E : 86;
792F : 00;
7930 : 60;
7931 : 24;
7932 : 01;
7933 : a9;
7934 : 40;
7935 : 38;
7936 : 60;
7937 : 30;
7938 : 0b;
7939 : 90;
793A : 09;
793B : d0;
793C : 07;
793D : 70;
793E : 05;
793F : c9;
7940 : 00;
7941 : d0;
7942 : 01;
7943 : 60;
7944 : 84;
7945 : 00;
7946 : 60;
7947 : b8;
7948 : 38;
7949 : a9;
794A : 40;
794B : 60;
794C : f0;
794D : 0b;
794E : 30;
794F : 09;
7950 : 90;
7951 : 07;
7952 : 70;
7953 : 05;
7954 : c9;
7955 : 01;
7956 : d0;
7957 : 01;
7958 : 60;
7959 : 84;
795A : 00;
795B : 60;
795C : a9;
795D : 40;
795E : 38;
795F : 24;
7960 : 01;
7961 : 60;
7962 : b0;
7963 : 0b;
7964 : f0;
7965 : 09;
7966 : 10;
7967 : 07;
7968 : 70;
7969 : 05;
796A : c9;
796B : ff;
796C : d0;
796D : 01;
796E : 60;
796F : 84;
7970 : 00;
7971 : 60;
7972 : 18;
7973 : a9;
7974 : 80;
7975 : 60;
7976 : 90;
7977 : 05;
7978 : c9;
7979 : 7f;
797A : d0;
797B : 01;
797C : 60;
797D : 84;
797E : 00;
797F : 60;
7980 : 38;
7981 : a9;
7982 : 81;
7983 : 60;
7984 : 50;
7985 : 07;
7986 : 90;
7987 : 05;
7988 : c9;
7989 : 02;
798A : d0;
798B : 01;
798C : 60;
798D : 84;
798E : 00;
798F : 60;
7990 : a2;
7991 : 55;
7992 : a9;
7993 : ff;
7994 : 85;
7995 : 01;
7996 : ea;
7997 : 24;
7998 : 01;
7999 : 38;
799A : a9;
799B : 01;
799C : 60;
799D : 90;
799E : 1b;
799F : d0;
79A0 : 19;
79A1 : 30;
79A2 : 17;
79A3 : 50;
79A4 : 15;
79A5 : c9;
79A6 : 00;
79A7 : d0;
79A8 : 11;
79A9 : b8;
79AA : a9;
79AB : aa;
79AC : 60;
79AD : b0;
79AE : 0b;
79AF : f0;
79B0 : 09;
79B1 : 30;
79B2 : 07;
79B3 : 70;
79B4 : 05;
79B5 : c9;
79B6 : 55;
79B7 : d0;
79B8 : 01;
79B9 : 60;
79BA : 84;
79BB : 00;
79BC : 60;
79BD : 24;
79BE : 01;
79BF : 38;
79C0 : a9;
79C1 : 80;
79C2 : 60;
79C3 : 90;
79C4 : 1c;
79C5 : d0;
79C6 : 1a;
79C7 : 30;
79C8 : 18;
79C9 : 50;
79CA : 16;
79CB : c9;
79CC : 00;
79CD : d0;
79CE : 12;
79CF : b8;
79D0 : a9;
79D1 : 55;
79D2 : 38;
79D3 : 60;
79D4 : b0;
79D5 : 0b;
79D6 : f0;
79D7 : 09;
79D8 : 10;
79D9 : 07;
79DA : 70;
79DB : 05;
79DC : c9;
79DD : aa;
79DE : d0;
79DF : 01;
79E0 : 60;
79E1 : 84;
79E2 : 00;
79E3 : 60;
79E4 : 24;
79E5 : 01;
79E6 : 38;
79E7 : a9;
79E8 : 01;
79E9 : 60;
79EA : 90;
79EB : 1c;
79EC : f0;
79ED : 1a;
79EE : 10;
79EF : 18;
79F0 : 50;
79F1 : 16;
79F2 : c9;
79F3 : 80;
79F4 : d0;
79F5 : 12;
79F6 : b8;
79F7 : 18;
79F8 : a9;
79F9 : 55;
79FA : 60;
79FB : 90;
79FC : 0b;
79FD : f0;
79FE : 09;
79FF : 30;
7A00 : 07;
7A01 : 70;
7A02 : 05;
7A03 : c9;
7A04 : 2a;
7A05 : d0;
7A06 : 01;
7A07 : 60;
7A08 : 84;
7A09 : 00;
7A0A : 24;
7A0B : 01;
7A0C : 38;
7A0D : a9;
7A0E : 80;
7A0F : 60;
7A10 : 90;
7A11 : 1c;
7A12 : f0;
7A13 : 1a;
7A14 : 30;
7A15 : 18;
7A16 : 50;
7A17 : 16;
7A18 : c9;
7A19 : 01;
7A1A : d0;
7A1B : 12;
7A1C : b8;
7A1D : 18;
7A1E : a9;
7A1F : 55;
7A20 : 60;
7A21 : b0;
7A22 : 0b;
7A23 : f0;
7A24 : 09;
7A25 : 10;
7A26 : 07;
7A27 : 70;
7A28 : 05;
7A29 : c9;
7A2A : aa;
7A2B : d0;
7A2C : 01;
7A2D : 60;
7A2E : 84;
7A2F : 00;
7A30 : 60;
7A31 : 24;
7A32 : 01;
7A33 : 18;
7A34 : a9;
7A35 : 40;
7A36 : 60;
7A37 : 50;
7A38 : 2c;
7A39 : b0;
7A3A : 2a;
7A3B : 30;
7A3C : 28;
7A3D : c9;
7A3E : 40;
7A3F : d0;
7A40 : 24;
7A41 : 60;
7A42 : b8;
7A43 : 38;
7A44 : a9;
7A45 : ff;
7A46 : 60;
7A47 : 70;
7A48 : 1c;
7A49 : d0;
7A4A : 1a;
7A4B : 30;
7A4C : 18;
7A4D : 90;
7A4E : 16;
7A4F : c9;
7A50 : ff;
7A51 : d0;
7A52 : 12;
7A53 : 60;
7A54 : 24;
7A55 : 01;
7A56 : a9;
7A57 : f0;
7A58 : 60;
7A59 : 50;
7A5A : 0a;
7A5B : f0;
7A5C : 08;
7A5D : 10;
7A5E : 06;
7A5F : 90;
7A60 : 04;
7A61 : c9;
7A62 : f0;
7A63 : f0;
7A64 : 02;
7A65 : 84;
7A66 : 00;
7A67 : 60;
7A68 : 24;
7A69 : 01;
7A6A : 38;
7A6B : a9;
7A6C : 75;
7A6D : 60;
7A6E : 50;
7A6F : 76;
7A70 : f0;
7A71 : 74;
7A72 : 30;
7A73 : 72;
7A74 : b0;
7A75 : 70;
7A76 : c9;
7A77 : 65;
7A78 : d0;
7A79 : 6c;
7A7A : 60;
7A7B : 24;
7A7C : 01;
7A7D : 18;
7A7E : a9;
7A7F : b3;
7A80 : 60;
7A81 : 50;
7A82 : 63;
7A83 : 90;
7A84 : 61;
7A85 : 10;
7A86 : 5f;
7A87 : c9;
7A88 : fb;
7A89 : d0;
7A8A : 5b;
7A8B : 60;
7A8C : b8;
7A8D : 18;
7A8E : a9;
7A8F : c3;
7A90 : 60;
7A91 : 70;
7A92 : 53;
7A93 : f0;
7A94 : 51;
7A95 : 10;
7A96 : 4f;
7A97 : b0;
7A98 : 4d;
7A99 : c9;
7A9A : d3;
7A9B : d0;
7A9C : 49;
7A9D : 60;
7A9E : 24;
7A9F : 01;
7AA0 : 38;
7AA1 : a9;
7AA2 : 10;
7AA3 : 60;
7AA4 : 50;
7AA5 : 40;
7AA6 : f0;
7AA7 : 3e;
7AA8 : 30;
7AA9 : 3c;
7AAA : b0;
7AAB : 3a;
7AAC : c9;
7AAD : 7e;
7AAE : d0;
7AAF : 36;
7AB0 : 60;
7AB1 : 24;
7AB2 : 01;
7AB3 : 18;
7AB4 : a9;
7AB5 : 40;
7AB6 : 60;
7AB7 : 70;
7AB8 : 2d;
7AB9 : b0;
7ABA : 2b;
7ABB : 30;
7ABC : 29;
7ABD : c9;
7ABE : 53;
7ABF : d0;
7AC0 : 25;
7AC1 : 60;
7AC2 : b8;
7AC3 : 38;
7AC4 : a9;
7AC5 : ff;
7AC6 : 60;
7AC7 : 70;
7AC8 : 1d;
7AC9 : f0;
7ACA : 1b;
7ACB : 10;
7ACC : 19;
7ACD : 90;
7ACE : 17;
7ACF : c9;
7AD0 : ff;
7AD1 : d0;
7AD2 : 13;
7AD3 : 60;
7AD4 : 24;
7AD5 : 01;
7AD6 : 38;
7AD7 : a9;
7AD8 : f0;
7AD9 : 60;
7ADA : 70;
7ADB : 0a;
7ADC : f0;
7ADD : 08;
7ADE : 10;
7ADF : 06;
7AE0 : 90;
7AE1 : 04;
7AE2 : c9;
7AE3 : b8;
7AE4 : f0;
7AE5 : 02;
7AE6 : 84;
7AE7 : 00;
7AE8 : 60;
7AE9 : 24;
7AEA : 01;
7AEB : 18;
7AEC : a9;
7AED : b2;
7AEE : 60;
7AEF : 70;
7AF0 : 2a;
7AF1 : 90;
7AF2 : 28;
7AF3 : 30;
7AF4 : 26;
7AF5 : c9;
7AF6 : 05;
7AF7 : d0;
7AF8 : 22;
7AF9 : 60;
7AFA : b8;
7AFB : 18;
7AFC : a9;
7AFD : 42;
7AFE : 60;
7AFF : 70;
7B00 : 1a;
7B01 : 30;
7B02 : 18;
7B03 : b0;
7B04 : 16;
7B05 : c9;
7B06 : 57;
7B07 : d0;
7B08 : 12;
7B09 : 60;
7B0A : 24;
7B0B : 01;
7B0C : 38;
7B0D : a9;
7B0E : 75;
7B0F : 60;
7B10 : 70;
7B11 : 09;
7B12 : 30;
7B13 : 07;
7B14 : 90;
7B15 : 05;
7B16 : c9;
7B17 : 11;
7B18 : d0;
7B19 : 01;
7B1A : 60;
7B1B : 85;
7B1C : 00;
7B1D : 24;
7B1E : 01;
7B1F : 18;
7B20 : a9;
7B21 : b3;
7B22 : 60;
7B23 : 50;
7B24 : 50;
7B25 : 90;
7B26 : 4e;
7B27 : 10;
7B28 : 4c;
7B29 : c9;
7B2A : e1;
7B2B : d0;
7B2C : 48;
7B2D : 60;
7B2E : b8;
7B2F : 18;
7B30 : a9;
7B31 : 42;
7B32 : 60;
7B33 : 70;
7B34 : 40;
7B35 : f0;
7B36 : 3e;
7B37 : 30;
7B38 : 3c;
7B39 : 90;
7B3A : 3a;
7B3B : c9;
7B3C : 56;
7B3D : d0;
7B3E : 36;
7B3F : 60;
7B40 : 24;
7B41 : 01;
7B42 : 38;
7B43 : a9;
7B44 : 75;
7B45 : 60;
7B46 : 50;
7B47 : 2d;
7B48 : f0;
7B49 : 2b;
7B4A : 30;
7B4B : 29;
7B4C : 90;
7B4D : 27;
7B4E : c9;
7B4F : 6e;
7B50 : d0;
7B51 : 23;
7B52 : 60;
7B53 : 24;
7B54 : 01;
7B55 : 18;
7B56 : a9;
7B57 : b3;
7B58 : 60;
7B59 : 50;
7B5A : 1a;
7B5B : 90;
7B5C : 18;
7B5D : 30;
7B5E : 16;
7B5F : c9;
7B60 : 02;
7B61 : d0;
7B62 : 12;
7B63 : 60;
7B64 : b8;
7B65 : 18;
7B66 : a9;
7B67 : 42;
7B68 : 60;
7B69 : 70;
7B6A : 0a;
7B6B : f0;
7B6C : 08;
7B6D : 30;
7B6E : 06;
7B6F : b0;
7B70 : 04;
7B71 : c9;
7B72 : 42;
7B73 : f0;
7B74 : 02;
7B75 : 84;
7B76 : 00;
7B77 : 60;
7B78 : 00;
7B79 : 00;
7B7A : 00;
7B7B : 00;
7B7C : 00;
7B7D : 00;
7B7E : 00;
7B7F : 00;
7B80 : 00;
7B81 : 00;
7B82 : 00;
7B83 : 00;
7B84 : 00;
7B85 : 00;
7B86 : 00;
7B87 : 00;
7B88 : 80;
7B89 : 80;
7B8A : ff;
7B8B : 80;
7B8C : 80;
7B8D : 00;
7B8E : 00;
7B8F : 00;
7B90 : 00;
7B91 : 00;
7B92 : ff;
7B93 : 00;
7B94 : 00;
7B95 : 00;
7B96 : 00;
7B97 : 00;
7B98 : 01;
7B99 : 01;
7B9A : ff;
7B9B : 01;
7B9C : 01;
7B9D : 00;
7B9E : 00;
7B9F : 00;
7BA0 : 00;
7BA1 : 00;
7BA2 : 00;
7BA3 : 00;
7BA4 : 00;
7BA5 : 00;
7BA6 : 00;
7BA7 : 00;
7BA8 : 7c;
7BA9 : fe;
7BAA : 00;
7BAB : c0;
7BAC : c0;
7BAD : fe;
7BAE : 7c;
7BAF : 00;
7BB0 : fe;
7BB1 : fe;
7BB2 : 00;
7BB3 : f0;
7BB4 : c0;
7BB5 : fe;
7BB6 : fe;
7BB7 : 00;
7BB8 : c6;
7BB9 : c6;
7BBA : 02;
7BBB : fe;
7BBC : c6;
7BBD : c6;
7BBE : c6;
7BBF : 00;
7BC0 : cc;
7BC1 : d8;
7BC2 : 00;
7BC3 : f0;
7BC4 : d8;
7BC5 : cc;
7BC6 : c6;
7BC7 : 00;
7BC8 : c6;
7BC9 : ee;
7BCA : 02;
7BCB : d6;
7BCC : c6;
7BCD : c6;
7BCE : c6;
7BCF : 00;
7BD0 : c6;
7BD1 : c6;
7BD2 : 02;
7BD3 : d6;
7BD4 : ce;
7BD5 : c6;
7BD6 : c6;
7BD7 : 00;
7BD8 : 7c;
7BD9 : fe;
7BDA : 02;
7BDB : c6;
7BDC : c6;
7BDD : fe;
7BDE : 7c;
7BDF : 00;
7BE0 : fc;
7BE1 : fe;
7BE2 : 02;
7BE3 : fc;
7BE4 : c0;
7BE5 : c0;
7BE6 : c0;
7BE7 : 00;
7BE8 : cc;
7BE9 : cc;
7BEA : 00;
7BEB : 78;
7BEC : 30;
7BED : 30;
7BEE : 30;
7BEF : 00;
7BF0 : 18;
7BF1 : 18;
7BF2 : 18;
7BF3 : 18;
7BF4 : 18;
7BF5 : 18;
7BF6 : 18;
7BF7 : 00;
7BF8 : fc;
7BF9 : fe;
7BFA : 02;
7BFB : 06;
7BFC : 1c;
7BFD : 70;
7BFE : fe;
7BFF : 00;
7C00 : fc;
7C01 : fe;
7C02 : 02;
7C03 : 3c;
7C04 : 3c;
7C05 : 02;
7C06 : fe;
7C07 : 00;
7C08 : 18;
7C09 : 18;
7C0A : d8;
7C0B : d8;
7C0C : fe;
7C0D : 18;
7C0E : 18;
7C0F : 00;
7C10 : fe;
7C11 : fe;
7C12 : 00;
7C13 : 80;
7C14 : fc;
7C15 : 06;
7C16 : fe;
7C17 : 00;
7C18 : 7c;
7C19 : fe;
7C1A : 00;
7C1B : c0;
7C1C : fc;
7C1D : c6;
7C1E : fe;
7C1F : 00;
7C20 : fe;
7C21 : fe;
7C22 : 06;
7C23 : 0c;
7C24 : 18;
7C25 : 10;
7C26 : 30;
7C27 : 00;
7C28 : 00;
7C29 : 00;
7C2A : 00;
7C2B : 00;
7C2C : 00;
7C2D : 00;
7C2E : 00;
7C2F : 00;
7C30 : 00;
7C31 : 00;
7C32 : 00;
7C33 : 00;
7C34 : 00;
7C35 : 00;
7C36 : 00;
7C37 : 00;
7C38 : 00;
7C39 : 00;
7C3A : 00;
7C3B : 00;
7C3C : 00;
7C3D : 00;
7C3E : 00;
7C3F : 00;
7C40 : 00;
7C41 : 00;
7C42 : 00;
7C43 : 00;
7C44 : 00;
7C45 : 00;
7C46 : 00;
7C47 : 00;
7C48 : 00;
7C49 : 00;
7C4A : 00;
7C4B : 00;
7C4C : 00;
7C4D : 00;
7C4E : 00;
7C4F : 00;
7C50 : 00;
7C51 : 00;
7C52 : 00;
7C53 : 00;
7C54 : 00;
7C55 : 00;
7C56 : 00;
7C57 : 00;
7C58 : 00;
7C59 : 00;
7C5A : 00;
7C5B : 00;
7C5C : 00;
7C5D : 00;
7C5E : 00;
7C5F : 00;
7C60 : 00;
7C61 : 00;
7C62 : 00;
7C63 : 00;
7C64 : 00;
7C65 : 00;
7C66 : 00;
7C67 : 00;
7C68 : 18;
7C69 : 18;
7C6A : 18;
7C6B : ff;
7C6C : ff;
7C6D : 18;
7C6E : 18;
7C6F : 18;
7C70 : 18;
7C71 : 18;
7C72 : 18;
7C73 : ff;
7C74 : ff;
7C75 : 00;
7C76 : 00;
7C77 : 00;
7C78 : 00;
7C79 : 00;
7C7A : 00;
7C7B : 00;
7C7C : 00;
7C7D : 00;
7C7E : 00;
7C7F : 00;
7C80 : 18;
7C81 : 18;
7C82 : 18;
7C83 : 18;
7C84 : 00;
7C85 : 18;
7C86 : 18;
7C87 : 00;
7C88 : 33;
7C89 : 33;
7C8A : 66;
7C8B : 00;
7C8C : 00;
7C8D : 00;
7C8E : 00;
7C8F : 00;
7C90 : 66;
7C91 : 66;
7C92 : ff;
7C93 : 66;
7C94 : ff;
7C95 : 66;
7C96 : 66;
7C97 : 00;
7C98 : 18;
7C99 : 3e;
7C9A : 60;
7C9B : 3c;
7C9C : 06;
7C9D : 7c;
7C9E : 18;
7C9F : 00;
7CA0 : 62;
7CA1 : 66;
7CA2 : 0c;
7CA3 : 18;
7CA4 : 30;
7CA5 : 66;
7CA6 : 46;
7CA7 : 00;
7CA8 : 3c;
7CA9 : 66;
7CAA : 3c;
7CAB : 38;
7CAC : 67;
7CAD : 66;
7CAE : 3f;
7CAF : 00;
7CB0 : 0c;
7CB1 : 0c;
7CB2 : 18;
7CB3 : 00;
7CB4 : 00;
7CB5 : 00;
7CB6 : 00;
7CB7 : 00;
7CB8 : 0c;
7CB9 : 18;
7CBA : 30;
7CBB : 30;
7CBC : 30;
7CBD : 18;
7CBE : 0c;
7CBF : 00;
7CC0 : 30;
7CC1 : 18;
7CC2 : 0c;
7CC3 : 0c;
7CC4 : 0c;
7CC5 : 18;
7CC6 : 30;
7CC7 : 00;
7CC8 : 00;
7CC9 : 66;
7CCA : 3c;
7CCB : ff;
7CCC : 3c;
7CCD : 66;
7CCE : 00;
7CCF : 00;
7CD0 : 00;
7CD1 : 18;
7CD2 : 18;
7CD3 : 7e;
7CD4 : 18;
7CD5 : 18;
7CD6 : 00;
7CD7 : 00;
7CD8 : 00;
7CD9 : 00;
7CDA : 00;
7CDB : 00;
7CDC : 00;
7CDD : 18;
7CDE : 18;
7CDF : 30;
7CE0 : 00;
7CE1 : 00;
7CE2 : 00;
7CE3 : 6e;
7CE4 : 3b;
7CE5 : 00;
7CE6 : 00;
7CE7 : 00;
7CE8 : 00;
7CE9 : 00;
7CEA : 00;
7CEB : 00;
7CEC : 00;
7CED : 18;
7CEE : 18;
7CEF : 00;
7CF0 : 00;
7CF1 : 03;
7CF2 : 06;
7CF3 : 0c;
7CF4 : 18;
7CF5 : 30;
7CF6 : 60;
7CF7 : 00;
7CF8 : 3e;
7CF9 : 63;
7CFA : 67;
7CFB : 6b;
7CFC : 73;
7CFD : 63;
7CFE : 3e;
7CFF : 00;
7D00 : 0c;
7D01 : 1c;
7D02 : 0c;
7D03 : 0c;
7D04 : 0c;
7D05 : 0c;
7D06 : 3f;
7D07 : 00;
7D08 : 3e;
7D09 : 63;
7D0A : 63;
7D0B : 0e;
7D0C : 38;
7D0D : 63;
7D0E : 7f;
7D0F : 00;
7D10 : 3e;
7D11 : 63;
7D12 : 63;
7D13 : 0e;
7D14 : 63;
7D15 : 63;
7D16 : 3e;
7D17 : 00;
7D18 : 06;
7D19 : 0e;
7D1A : 1e;
7D1B : 26;
7D1C : 7f;
7D1D : 06;
7D1E : 06;
7D1F : 00;
7D20 : 7f;
7D21 : 63;
7D22 : 60;
7D23 : 7e;
7D24 : 03;
7D25 : 63;
7D26 : 3e;
7D27 : 00;
7D28 : 3e;
7D29 : 63;
7D2A : 60;
7D2B : 7e;
7D2C : 63;
7D2D : 63;
7D2E : 3e;
7D2F : 00;
7D30 : 7f;
7D31 : 63;
7D32 : 06;
7D33 : 0c;
7D34 : 18;
7D35 : 18;
7D36 : 3c;
7D37 : 00;
7D38 : 3e;
7D39 : 63;
7D3A : 63;
7D3B : 3e;
7D3C : 63;
7D3D : 63;
7D3E : 3e;
7D3F : 00;
7D40 : 3e;
7D41 : 63;
7D42 : 63;
7D43 : 3f;
7D44 : 03;
7D45 : 63;
7D46 : 3e;
7D47 : 00;
7D48 : 00;
7D49 : 00;
7D4A : 18;
7D4B : 18;
7D4C : 00;
7D4D : 18;
7D4E : 18;
7D4F : 00;
7D50 : 00;
7D51 : 00;
7D52 : 18;
7D53 : 18;
7D54 : 00;
7D55 : 18;
7D56 : 18;
7D57 : 30;
7D58 : 0e;
7D59 : 18;
7D5A : 30;
7D5B : 60;
7D5C : 30;
7D5D : 18;
7D5E : 0e;
7D5F : 00;
7D60 : 00;
7D61 : 00;
7D62 : 7e;
7D63 : 00;
7D64 : 7e;
7D65 : 00;
7D66 : 00;
7D67 : 00;
7D68 : 70;
7D69 : 18;
7D6A : 0c;
7D6B : 06;
7D6C : 0c;
7D6D : 18;
7D6E : 70;
7D6F : 00;
7D70 : 7e;
7D71 : 63;
7D72 : 03;
7D73 : 06;
7D74 : 1c;
7D75 : 00;
7D76 : 18;
7D77 : 18;
7D78 : 7c;
7D79 : c6;
7D7A : ce;
7D7B : ee;
7D7C : e0;
7D7D : e6;
7D7E : 7c;
7D7F : 00;
7D80 : 1c;
7D81 : 36;
7D82 : 63;
7D83 : 7f;
7D84 : 63;
7D85 : 63;
7D86 : 63;
7D87 : 00;
7D88 : 6e;
7D89 : 73;
7D8A : 63;
7D8B : 7e;
7D8C : 63;
7D8D : 63;
7D8E : 7e;
7D8F : 00;
7D90 : 1e;
7D91 : 33;
7D92 : 60;
7D93 : 60;
7D94 : 60;
7D95 : 33;
7D96 : 1e;
7D97 : 00;
7D98 : 6c;
7D99 : 76;
7D9A : 63;
7D9B : 63;
7D9C : 63;
7D9D : 66;
7D9E : 7c;
7D9F : 00;
7DA0 : 7f;
7DA1 : 31;
7DA2 : 30;
7DA3 : 3c;
7DA4 : 30;
7DA5 : 31;
7DA6 : 7f;
7DA7 : 00;
7DA8 : 7f;
7DA9 : 31;
7DAA : 30;
7DAB : 3c;
7DAC : 30;
7DAD : 30;
7DAE : 78;
7DAF : 00;
7DB0 : 1e;
7DB1 : 33;
7DB2 : 60;
7DB3 : 67;
7DB4 : 63;
7DB5 : 37;
7DB6 : 1d;
7DB7 : 00;
7DB8 : 63;
7DB9 : 63;
7DBA : 63;
7DBB : 7f;
7DBC : 63;
7DBD : 63;
7DBE : 63;
7DBF : 00;
7DC0 : 3c;
7DC1 : 18;
7DC2 : 18;
7DC3 : 18;
7DC4 : 18;
7DC5 : 18;
7DC6 : 3c;
7DC7 : 00;
7DC8 : 1f;
7DC9 : 06;
7DCA : 06;
7DCB : 06;
7DCC : 06;
7DCD : 66;
7DCE : 3c;
7DCF : 00;
7DD0 : 66;
7DD1 : 66;
7DD2 : 6c;
7DD3 : 78;
7DD4 : 6c;
7DD5 : 67;
7DD6 : 63;
7DD7 : 00;
7DD8 : 78;
7DD9 : 30;
7DDA : 60;
7DDB : 60;
7DDC : 63;
7DDD : 63;
7DDE : 7e;
7DDF : 00;
7DE0 : 63;
7DE1 : 77;
7DE2 : 7f;
7DE3 : 6b;
7DE4 : 63;
7DE5 : 63;
7DE6 : 63;
7DE7 : 00;
7DE8 : 63;
7DE9 : 73;
7DEA : 7b;
7DEB : 6f;
7DEC : 67;
7DED : 63;
7DEE : 63;
7DEF : 00;
7DF0 : 1c;
7DF1 : 36;
7DF2 : 63;
7DF3 : 63;
7DF4 : 63;
7DF5 : 36;
7DF6 : 1c;
7DF7 : 00;
7DF8 : 6e;
7DF9 : 73;
7DFA : 63;
7DFB : 7e;
7DFC : 60;
7DFD : 60;
7DFE : 60;
7DFF : 00;
7E00 : 1c;
7E01 : 36;
7E02 : 63;
7E03 : 6b;
7E04 : 67;
7E05 : 36;
7E06 : 1d;
7E07 : 00;
7E08 : 6e;
7E09 : 73;
7E0A : 63;
7E0B : 7e;
7E0C : 6c;
7E0D : 67;
7E0E : 63;
7E0F : 00;
7E10 : 3e;
7E11 : 63;
7E12 : 60;
7E13 : 3e;
7E14 : 03;
7E15 : 63;
7E16 : 3e;
7E17 : 00;
7E18 : 7e;
7E19 : 5a;
7E1A : 18;
7E1B : 18;
7E1C : 18;
7E1D : 18;
7E1E : 3c;
7E1F : 00;
7E20 : 73;
7E21 : 33;
7E22 : 63;
7E23 : 63;
7E24 : 63;
7E25 : 76;
7E26 : 3c;
7E27 : 00;
7E28 : 73;
7E29 : 33;
7E2A : 63;
7E2B : 63;
7E2C : 66;
7E2D : 3c;
7E2E : 18;
7E2F : 00;
7E30 : 73;
7E31 : 33;
7E32 : 63;
7E33 : 6b;
7E34 : 7f;
7E35 : 77;
7E36 : 63;
7E37 : 00;
7E38 : 63;
7E39 : 63;
7E3A : 36;
7E3B : 1c;
7E3C : 36;
7E3D : 63;
7E3E : 63;
7E3F : 00;
7E40 : 33;
7E41 : 63;
7E42 : 63;
7E43 : 36;
7E44 : 1c;
7E45 : 78;
7E46 : 70;
7E47 : 00;
7E48 : 7f;
7E49 : 63;
7E4A : 06;
7E4B : 1c;
7E4C : 33;
7E4D : 63;
7E4E : 7e;
7E4F : 00;
7E50 : 3c;
7E51 : 30;
7E52 : 30;
7E53 : 30;
7E54 : 30;
7E55 : 30;
7E56 : 3c;
7E57 : 00;
7E58 : 40;
7E59 : 60;
7E5A : 30;
7E5B : 18;
7E5C : 0c;
7E5D : 06;
7E5E : 02;
7E5F : 00;
7E60 : 3c;
7E61 : 0c;
7E62 : 0c;
7E63 : 0c;
7E64 : 0c;
7E65 : 0c;
7E66 : 3c;
7E67 : 00;
7E68 : 00;
7E69 : 18;
7E6A : 3c;
7E6B : 7e;
7E6C : 18;
7E6D : 18;
7E6E : 18;
7E6F : 18;
7E70 : 00;
7E71 : 00;
7E72 : 00;
7E73 : 00;
7E74 : 00;
7E75 : 00;
7E76 : ff;
7E77 : ff;
7E78 : 30;
7E79 : 30;
7E7A : 18;
7E7B : 00;
7E7C : 00;
7E7D : 00;
7E7E : 00;
7E7F : 00;
7E80 : 00;
7E81 : 00;
7E82 : 3f;
7E83 : 63;
7E84 : 63;
7E85 : 67;
7E86 : 3b;
7E87 : 00;
7E88 : 60;
7E89 : 60;
7E8A : 6e;
7E8B : 73;
7E8C : 63;
7E8D : 63;
7E8E : 3e;
7E8F : 00;
7E90 : 00;
7E91 : 00;
7E92 : 3e;
7E93 : 63;
7E94 : 60;
7E95 : 63;
7E96 : 3e;
7E97 : 00;
7E98 : 03;
7E99 : 03;
7E9A : 3b;
7E9B : 67;
7E9C : 63;
7E9D : 63;
7E9E : 3e;
7E9F : 00;
7EA0 : 00;
7EA1 : 00;
7EA2 : 3e;
7EA3 : 61;
7EA4 : 7f;
7EA5 : 60;
7EA6 : 3e;
7EA7 : 00;
7EA8 : 0e;
7EA9 : 18;
7EAA : 18;
7EAB : 3c;
7EAC : 18;
7EAD : 18;
7EAE : 3c;
7EAF : 00;
7EB0 : 00;
7EB1 : 00;
7EB2 : 3e;
7EB3 : 60;
7EB4 : 63;
7EB5 : 63;
7EB6 : 3d;
7EB7 : 00;
7EB8 : 60;
7EB9 : 60;
7EBA : 6e;
7EBB : 73;
7EBC : 63;
7EBD : 66;
7EBE : 67;
7EBF : 00;
7EC0 : 00;
7EC1 : 00;
7EC2 : 1e;
7EC3 : 0c;
7EC4 : 0c;
7EC5 : 0c;
7EC6 : 1e;
7EC7 : 00;
7EC8 : 00;
7EC9 : 00;
7ECA : 3f;
7ECB : 06;
7ECC : 06;
7ECD : 06;
7ECE : 66;
7ECF : 3c;
7ED0 : 60;
7ED1 : 60;
7ED2 : 66;
7ED3 : 6e;
7ED4 : 7c;
7ED5 : 67;
7ED6 : 63;
7ED7 : 00;
7ED8 : 1c;
7ED9 : 0c;
7EDA : 0c;
7EDB : 0c;
7EDC : 0c;
7EDD : 0c;
7EDE : 1e;
7EDF : 00;
7EE0 : 00;
7EE1 : 00;
7EE2 : 6e;
7EE3 : 7f;
7EE4 : 6b;
7EE5 : 62;
7EE6 : 67;
7EE7 : 00;
7EE8 : 00;
7EE9 : 00;
7EEA : 6e;
7EEB : 73;
7EEC : 63;
7EED : 66;
7EEE : 67;
7EEF : 00;
7EF0 : 00;
7EF1 : 00;
7EF2 : 3e;
7EF3 : 63;
7EF4 : 63;
7EF5 : 63;
7EF6 : 3e;
7EF7 : 00;
7EF8 : 00;
7EF9 : 00;
7EFA : 3e;
7EFB : 63;
7EFC : 73;
7EFD : 6e;
7EFE : 60;
7EFF : 60;
7F00 : 00;
7F01 : 00;
7F02 : 3e;
7F03 : 63;
7F04 : 67;
7F05 : 3b;
7F06 : 03;
7F07 : 03;
7F08 : 00;
7F09 : 00;
7F0A : 6e;
7F0B : 73;
7F0C : 63;
7F0D : 7e;
7F0E : 63;
7F0F : 00;
7F10 : 00;
7F11 : 00;
7F12 : 3e;
7F13 : 71;
7F14 : 1c;
7F15 : 47;
7F16 : 3e;
7F17 : 00;
7F18 : 06;
7F19 : 0c;
7F1A : 3f;
7F1B : 18;
7F1C : 18;
7F1D : 1b;
7F1E : 0e;
7F1F : 00;
7F20 : 00;
7F21 : 00;
7F22 : 73;
7F23 : 33;
7F24 : 63;
7F25 : 67;
7F26 : 3b;
7F27 : 00;
7F28 : 00;
7F29 : 00;
7F2A : 73;
7F2B : 33;
7F2C : 63;
7F2D : 66;
7F2E : 3c;
7F2F : 00;
7F30 : 00;
7F31 : 00;
7F32 : 63;
7F33 : 6b;
7F34 : 7f;
7F35 : 77;
7F36 : 63;
7F37 : 00;
7F38 : 00;
7F39 : 00;
7F3A : 63;
7F3B : 36;
7F3C : 1c;
7F3D : 36;
7F3E : 63;
7F3F : 00;
7F40 : 00;
7F41 : 00;
7F42 : 33;
7F43 : 63;
7F44 : 63;
7F45 : 3f;
7F46 : 03;
7F47 : 3e;
7F48 : 00;
7F49 : 00;
7F4A : 7f;
7F4B : 0e;
7F4C : 1c;
7F4D : 38;
7F4E : 7f;
7F4F : 00;
7F50 : 3c;
7F51 : 42;
7F52 : 99;
7F53 : a1;
7F54 : a1;
7F55 : 99;
7F56 : 42;
7F57 : 3c;
7F58 : 00;
7F59 : 00;
7F5A : 00;
7F5B : 00;
7F5C : 00;
7F5D : 00;
7F5E : 00;
7F5F : 00;
7F60 : 00;
7F61 : 00;
7F62 : 00;
7F63 : 00;
7F64 : 00;
7F65 : 00;
7F66 : 00;
7F67 : 00;
7F68 : 00;
7F69 : 00;
7F6A : 00;
7F6B : 00;
7F6C : 00;
7F6D : 00;
7F6E : 00;
7F6F : 00;
7F70 : 00;
7F71 : 00;
7F72 : 00;
7F73 : 00;
7F74 : 00;
7F75 : 00;
7F76 : 00;
7F77 : 00;
7F78 : 0f;
7F79 : 06;
7F7A : 12;
7F7B : 33;
7F7C : 33;
7F7D : 06;
7F7E : 12;
7F7F : 33;
7F80 : 38;
7F81 : 06;
7F82 : 12;
7F83 : 33;
7F84 : 3a;
7F85 : 06;
7F86 : 12;
7F87 : 33;
7F88 : 0f;
7F89 : 06;
7F8A : 12;
7F8B : 33;
7F8C : 33;
7F8D : 06;
7F8E : 12;
7F8F : 33;
7F90 : 38;
7F91 : 06;
7F92 : 12;
7F93 : 33;
7F94 : 3a;
7F95 : 06;
7F96 : 12;
7F97 : 33;
7F98 : 00;
7F99 : 00;
7F9A : 00;
7F9B : 00;
7F9C : 00;
7F9D : 00;
7F9E : 00;
7F9F : 00;
7FA0 : 00;
7FA1 : 00;
7FA2 : 00;
7FA3 : 00;
7FA4 : 00;
7FA5 : 00;
7FA6 : 00;
7FA7 : 00;
7FA8 : 00;
7FA9 : 00;
7FAA : 00;
7FAB : 00;
7FAC : 00;
7FAD : 00;
7FAE : 00;
7FAF : 00;
7FB0 : 00;
7FB1 : 00;
7FB2 : 00;
7FB3 : 00;
7FB4 : 00;
7FB5 : 00;
7FB6 : 00;
7FB7 : 00;
7FB8 : 00;
7FB9 : 00;
7FBA : 00;
7FBB : 00;
7FBC : 00;
7FBD : 00;
7FBE : 00;
7FBF : 00;
7FC0 : 00;
7FC1 : 00;
7FC2 : 00;
7FC3 : 00;
7FC4 : 00;
7FC5 : 00;
7FC6 : 00;
7FC7 : 00;
7FC8 : 00;
7FC9 : 00;
7FCA : 00;
7FCB : 00;
7FCC : 00;
7FCD : 00;
7FCE : 00;
7FCF : 00;
7FD0 : 00;
7FD1 : 00;
7FD2 : 00;
7FD3 : 00;
7FD4 : 00;
7FD5 : 00;
7FD6 : 00;
7FD7 : 00;
7FD8 : 00;
7FD9 : 00;
7FDA : 00;
7FDB : 00;
7FDC : 00;
7FDD : 00;
7FDE : 00;
7FDF : 00;
7FE0 : 00;
7FE1 : 00;
7FE2 : 00;
7FE3 : 00;
7FE4 : 00;
7FE5 : 00;
7FE6 : 00;
7FE7 : 00;
7FE8 : 00;
7FE9 : 00;
7FEA : 00;
7FEB : 00;
7FEC : 00;
7FED : 00;
7FEE : 00;
7FEF : 00;
7FF0 : 00;
7FF1 : 00;
7FF2 : 00;
7FF3 : 00;
7FF4 : 00;
7FF5 : 00;
7FF6 : 00;
7FF7 : 00;
7FF8 : 00;
7FF9 : 00;
7FFA : af;
7FFB : c5;
7FFC : 04;
7FFD : c0;
7FFE : f4;
7FFF : c5;
END;
