DEPTH=8192;
WIDTH=8;
ADDRESS_RADIX=HEX;
DATA_RADIX=HEX;
CONTENT
BEGIN
   0 : 00;
   1 : 00;
   2 : 00;
   3 : 00;
   4 : 00;
   5 : 00;
   6 : 00;
   7 : 00;
   8 : 00;
   9 : 00;
   A : 00;
   B : 00;
   C : 00;
   D : 00;
   E : 00;
   F : 00;
  10 : 00;
  11 : 00;
  12 : 00;
  13 : 00;
  14 : 00;
  15 : 00;
  16 : 00;
  17 : 00;
  18 : 00;
  19 : 00;
  1A : 00;
  1B : 00;
  1C : 00;
  1D : 00;
  1E : 00;
  1F : 00;
  20 : 80;
  21 : 80;
  22 : ff;
  23 : 80;
  24 : 80;
  25 : 00;
  26 : 00;
  27 : 00;
  28 : 80;
  29 : 80;
  2A : ff;
  2B : 80;
  2C : 80;
  2D : 00;
  2E : 00;
  2F : 00;
  30 : 00;
  31 : 00;
  32 : ff;
  33 : 00;
  34 : 00;
  35 : 00;
  36 : 00;
  37 : 00;
  38 : 00;
  39 : 00;
  3A : ff;
  3B : 00;
  3C : 00;
  3D : 00;
  3E : 00;
  3F : 00;
  40 : 01;
  41 : 01;
  42 : ff;
  43 : 01;
  44 : 01;
  45 : 00;
  46 : 00;
  47 : 00;
  48 : 01;
  49 : 01;
  4A : ff;
  4B : 01;
  4C : 01;
  4D : 00;
  4E : 00;
  4F : 00;
  50 : 00;
  51 : 00;
  52 : 00;
  53 : 00;
  54 : 00;
  55 : 00;
  56 : 00;
  57 : 00;
  58 : 00;
  59 : 00;
  5A : 00;
  5B : 00;
  5C : 00;
  5D : 00;
  5E : 00;
  5F : 00;
  60 : 7c;
  61 : fe;
  62 : 00;
  63 : c0;
  64 : c0;
  65 : fe;
  66 : 7c;
  67 : 00;
  68 : 7c;
  69 : fe;
  6A : 00;
  6B : c0;
  6C : c0;
  6D : fe;
  6E : 7c;
  6F : 00;
  70 : fe;
  71 : fe;
  72 : 00;
  73 : f0;
  74 : c0;
  75 : fe;
  76 : fe;
  77 : 00;
  78 : fe;
  79 : fe;
  7A : 00;
  7B : f0;
  7C : c0;
  7D : fe;
  7E : fe;
  7F : 00;
  80 : c6;
  81 : c6;
  82 : 02;
  83 : fe;
  84 : c6;
  85 : c6;
  86 : c6;
  87 : 00;
  88 : c6;
  89 : c6;
  8A : 02;
  8B : fe;
  8C : c6;
  8D : c6;
  8E : c6;
  8F : 00;
  90 : cc;
  91 : d8;
  92 : 00;
  93 : f0;
  94 : d8;
  95 : cc;
  96 : c6;
  97 : 00;
  98 : cc;
  99 : d8;
  9A : 00;
  9B : f0;
  9C : d8;
  9D : cc;
  9E : c6;
  9F : 00;
  A0 : c6;
  A1 : ee;
  A2 : 02;
  A3 : d6;
  A4 : c6;
  A5 : c6;
  A6 : c6;
  A7 : 00;
  A8 : c6;
  A9 : ee;
  AA : 02;
  AB : d6;
  AC : c6;
  AD : c6;
  AE : c6;
  AF : 00;
  B0 : c6;
  B1 : c6;
  B2 : 02;
  B3 : d6;
  B4 : ce;
  B5 : c6;
  B6 : c6;
  B7 : 00;
  B8 : c6;
  B9 : c6;
  BA : 02;
  BB : d6;
  BC : ce;
  BD : c6;
  BE : c6;
  BF : 00;
  C0 : 7c;
  C1 : fe;
  C2 : 02;
  C3 : c6;
  C4 : c6;
  C5 : fe;
  C6 : 7c;
  C7 : 00;
  C8 : 7c;
  C9 : fe;
  CA : 02;
  CB : c6;
  CC : c6;
  CD : fe;
  CE : 7c;
  CF : 00;
  D0 : fc;
  D1 : fe;
  D2 : 02;
  D3 : fc;
  D4 : c0;
  D5 : c0;
  D6 : c0;
  D7 : 00;
  D8 : fc;
  D9 : fe;
  DA : 02;
  DB : fc;
  DC : c0;
  DD : c0;
  DE : c0;
  DF : 00;
  E0 : cc;
  E1 : cc;
  E2 : 00;
  E3 : 78;
  E4 : 30;
  E5 : 30;
  E6 : 30;
  E7 : 00;
  E8 : cc;
  E9 : cc;
  EA : 00;
  EB : 78;
  EC : 30;
  ED : 30;
  EE : 30;
  EF : 00;
  F0 : 18;
  F1 : 18;
  F2 : 18;
  F3 : 18;
  F4 : 18;
  F5 : 18;
  F6 : 18;
  F7 : 00;
  F8 : 18;
  F9 : 18;
  FA : 18;
  FB : 18;
  FC : 18;
  FD : 18;
  FE : 18;
  FF : 00;
 100 : fc;
 101 : fe;
 102 : 02;
 103 : 06;
 104 : 1c;
 105 : 70;
 106 : fe;
 107 : 00;
 108 : fc;
 109 : fe;
 10A : 02;
 10B : 06;
 10C : 1c;
 10D : 70;
 10E : fe;
 10F : 00;
 110 : fc;
 111 : fe;
 112 : 02;
 113 : 3c;
 114 : 3c;
 115 : 02;
 116 : fe;
 117 : 00;
 118 : fc;
 119 : fe;
 11A : 02;
 11B : 3c;
 11C : 3c;
 11D : 02;
 11E : fe;
 11F : 00;
 120 : 18;
 121 : 18;
 122 : d8;
 123 : d8;
 124 : fe;
 125 : 18;
 126 : 18;
 127 : 00;
 128 : 18;
 129 : 18;
 12A : d8;
 12B : d8;
 12C : fe;
 12D : 18;
 12E : 18;
 12F : 00;
 130 : fe;
 131 : fe;
 132 : 00;
 133 : 80;
 134 : fc;
 135 : 06;
 136 : fe;
 137 : 00;
 138 : fe;
 139 : fe;
 13A : 00;
 13B : 80;
 13C : fc;
 13D : 06;
 13E : fe;
 13F : 00;
 140 : 7c;
 141 : fe;
 142 : 00;
 143 : c0;
 144 : fc;
 145 : c6;
 146 : fe;
 147 : 00;
 148 : 7c;
 149 : fe;
 14A : 00;
 14B : c0;
 14C : fc;
 14D : c6;
 14E : fe;
 14F : 00;
 150 : fe;
 151 : fe;
 152 : 06;
 153 : 0c;
 154 : 18;
 155 : 10;
 156 : 30;
 157 : 00;
 158 : fe;
 159 : fe;
 15A : 06;
 15B : 0c;
 15C : 18;
 15D : 10;
 15E : 30;
 15F : 00;
 160 : 00;
 161 : 00;
 162 : 00;
 163 : 00;
 164 : 00;
 165 : 00;
 166 : 00;
 167 : 00;
 168 : 00;
 169 : 00;
 16A : 00;
 16B : 00;
 16C : 00;
 16D : 00;
 16E : 00;
 16F : 00;
 170 : 00;
 171 : 00;
 172 : 00;
 173 : 00;
 174 : 00;
 175 : 00;
 176 : 00;
 177 : 00;
 178 : 00;
 179 : 00;
 17A : 00;
 17B : 00;
 17C : 00;
 17D : 00;
 17E : 00;
 17F : 00;
 180 : 00;
 181 : 00;
 182 : 00;
 183 : 00;
 184 : 00;
 185 : 00;
 186 : 00;
 187 : 00;
 188 : 00;
 189 : 00;
 18A : 00;
 18B : 00;
 18C : 00;
 18D : 00;
 18E : 00;
 18F : 00;
 190 : 00;
 191 : 00;
 192 : 00;
 193 : 00;
 194 : 00;
 195 : 00;
 196 : 00;
 197 : 00;
 198 : 00;
 199 : 00;
 19A : 00;
 19B : 00;
 19C : 00;
 19D : 00;
 19E : 00;
 19F : 00;
 1A0 : 00;
 1A1 : 00;
 1A2 : 00;
 1A3 : 00;
 1A4 : 00;
 1A5 : 00;
 1A6 : 00;
 1A7 : 00;
 1A8 : 00;
 1A9 : 00;
 1AA : 00;
 1AB : 00;
 1AC : 00;
 1AD : 00;
 1AE : 00;
 1AF : 00;
 1B0 : 00;
 1B1 : 00;
 1B2 : 00;
 1B3 : 00;
 1B4 : 00;
 1B5 : 00;
 1B6 : 00;
 1B7 : 00;
 1B8 : 00;
 1B9 : 00;
 1BA : 00;
 1BB : 00;
 1BC : 00;
 1BD : 00;
 1BE : 00;
 1BF : 00;
 1C0 : 00;
 1C1 : 00;
 1C2 : 00;
 1C3 : 00;
 1C4 : 00;
 1C5 : 00;
 1C6 : 00;
 1C7 : 00;
 1C8 : 00;
 1C9 : 00;
 1CA : 00;
 1CB : 00;
 1CC : 00;
 1CD : 00;
 1CE : 00;
 1CF : 00;
 1D0 : 00;
 1D1 : 00;
 1D2 : 00;
 1D3 : 00;
 1D4 : 00;
 1D5 : 00;
 1D6 : 00;
 1D7 : 00;
 1D8 : 00;
 1D9 : 00;
 1DA : 00;
 1DB : 00;
 1DC : 00;
 1DD : 00;
 1DE : 00;
 1DF : 00;
 1E0 : 18;
 1E1 : 18;
 1E2 : 18;
 1E3 : ff;
 1E4 : ff;
 1E5 : 18;
 1E6 : 18;
 1E7 : 18;
 1E8 : 18;
 1E9 : 18;
 1EA : 18;
 1EB : ff;
 1EC : ff;
 1ED : 18;
 1EE : 18;
 1EF : 18;
 1F0 : 18;
 1F1 : 18;
 1F2 : 18;
 1F3 : ff;
 1F4 : ff;
 1F5 : 00;
 1F6 : 00;
 1F7 : 00;
 1F8 : 18;
 1F9 : 18;
 1FA : 18;
 1FB : ff;
 1FC : ff;
 1FD : 00;
 1FE : 00;
 1FF : 00;
 200 : 00;
 201 : 00;
 202 : 00;
 203 : 00;
 204 : 00;
 205 : 00;
 206 : 00;
 207 : 00;
 208 : 00;
 209 : 00;
 20A : 00;
 20B : 00;
 20C : 00;
 20D : 00;
 20E : 00;
 20F : 00;
 210 : 18;
 211 : 18;
 212 : 18;
 213 : 18;
 214 : 00;
 215 : 18;
 216 : 18;
 217 : 00;
 218 : 18;
 219 : 18;
 21A : 18;
 21B : 18;
 21C : 00;
 21D : 18;
 21E : 18;
 21F : 00;
 220 : 33;
 221 : 33;
 222 : 66;
 223 : 00;
 224 : 00;
 225 : 00;
 226 : 00;
 227 : 00;
 228 : 33;
 229 : 33;
 22A : 66;
 22B : 00;
 22C : 00;
 22D : 00;
 22E : 00;
 22F : 00;
 230 : 66;
 231 : 66;
 232 : ff;
 233 : 66;
 234 : ff;
 235 : 66;
 236 : 66;
 237 : 00;
 238 : 66;
 239 : 66;
 23A : ff;
 23B : 66;
 23C : ff;
 23D : 66;
 23E : 66;
 23F : 00;
 240 : 18;
 241 : 3e;
 242 : 60;
 243 : 3c;
 244 : 06;
 245 : 7c;
 246 : 18;
 247 : 00;
 248 : 18;
 249 : 3e;
 24A : 60;
 24B : 3c;
 24C : 06;
 24D : 7c;
 24E : 18;
 24F : 00;
 250 : 62;
 251 : 66;
 252 : 0c;
 253 : 18;
 254 : 30;
 255 : 66;
 256 : 46;
 257 : 00;
 258 : 62;
 259 : 66;
 25A : 0c;
 25B : 18;
 25C : 30;
 25D : 66;
 25E : 46;
 25F : 00;
 260 : 3c;
 261 : 66;
 262 : 3c;
 263 : 38;
 264 : 67;
 265 : 66;
 266 : 3f;
 267 : 00;
 268 : 3c;
 269 : 66;
 26A : 3c;
 26B : 38;
 26C : 67;
 26D : 66;
 26E : 3f;
 26F : 00;
 270 : 0c;
 271 : 0c;
 272 : 18;
 273 : 00;
 274 : 00;
 275 : 00;
 276 : 00;
 277 : 00;
 278 : 0c;
 279 : 0c;
 27A : 18;
 27B : 00;
 27C : 00;
 27D : 00;
 27E : 00;
 27F : 00;
 280 : 0c;
 281 : 18;
 282 : 30;
 283 : 30;
 284 : 30;
 285 : 18;
 286 : 0c;
 287 : 00;
 288 : 0c;
 289 : 18;
 28A : 30;
 28B : 30;
 28C : 30;
 28D : 18;
 28E : 0c;
 28F : 00;
 290 : 30;
 291 : 18;
 292 : 0c;
 293 : 0c;
 294 : 0c;
 295 : 18;
 296 : 30;
 297 : 00;
 298 : 30;
 299 : 18;
 29A : 0c;
 29B : 0c;
 29C : 0c;
 29D : 18;
 29E : 30;
 29F : 00;
 2A0 : 00;
 2A1 : 66;
 2A2 : 3c;
 2A3 : ff;
 2A4 : 3c;
 2A5 : 66;
 2A6 : 00;
 2A7 : 00;
 2A8 : 00;
 2A9 : 66;
 2AA : 3c;
 2AB : ff;
 2AC : 3c;
 2AD : 66;
 2AE : 00;
 2AF : 00;
 2B0 : 00;
 2B1 : 18;
 2B2 : 18;
 2B3 : 7e;
 2B4 : 18;
 2B5 : 18;
 2B6 : 00;
 2B7 : 00;
 2B8 : 00;
 2B9 : 18;
 2BA : 18;
 2BB : 7e;
 2BC : 18;
 2BD : 18;
 2BE : 00;
 2BF : 00;
 2C0 : 00;
 2C1 : 00;
 2C2 : 00;
 2C3 : 00;
 2C4 : 00;
 2C5 : 18;
 2C6 : 18;
 2C7 : 30;
 2C8 : 00;
 2C9 : 00;
 2CA : 00;
 2CB : 00;
 2CC : 00;
 2CD : 18;
 2CE : 18;
 2CF : 30;
 2D0 : 00;
 2D1 : 00;
 2D2 : 00;
 2D3 : 6e;
 2D4 : 3b;
 2D5 : 00;
 2D6 : 00;
 2D7 : 00;
 2D8 : 00;
 2D9 : 00;
 2DA : 00;
 2DB : 6e;
 2DC : 3b;
 2DD : 00;
 2DE : 00;
 2DF : 00;
 2E0 : 00;
 2E1 : 00;
 2E2 : 00;
 2E3 : 00;
 2E4 : 00;
 2E5 : 18;
 2E6 : 18;
 2E7 : 00;
 2E8 : 00;
 2E9 : 00;
 2EA : 00;
 2EB : 00;
 2EC : 00;
 2ED : 18;
 2EE : 18;
 2EF : 00;
 2F0 : 00;
 2F1 : 03;
 2F2 : 06;
 2F3 : 0c;
 2F4 : 18;
 2F5 : 30;
 2F6 : 60;
 2F7 : 00;
 2F8 : 00;
 2F9 : 03;
 2FA : 06;
 2FB : 0c;
 2FC : 18;
 2FD : 30;
 2FE : 60;
 2FF : 00;
 300 : 3e;
 301 : 63;
 302 : 67;
 303 : 6b;
 304 : 73;
 305 : 63;
 306 : 3e;
 307 : 00;
 308 : 3e;
 309 : 63;
 30A : 67;
 30B : 6b;
 30C : 73;
 30D : 63;
 30E : 3e;
 30F : 00;
 310 : 0c;
 311 : 1c;
 312 : 0c;
 313 : 0c;
 314 : 0c;
 315 : 0c;
 316 : 3f;
 317 : 00;
 318 : 0c;
 319 : 1c;
 31A : 0c;
 31B : 0c;
 31C : 0c;
 31D : 0c;
 31E : 3f;
 31F : 00;
 320 : 3e;
 321 : 63;
 322 : 63;
 323 : 0e;
 324 : 38;
 325 : 63;
 326 : 7f;
 327 : 00;
 328 : 3e;
 329 : 63;
 32A : 63;
 32B : 0e;
 32C : 38;
 32D : 63;
 32E : 7f;
 32F : 00;
 330 : 3e;
 331 : 63;
 332 : 63;
 333 : 0e;
 334 : 63;
 335 : 63;
 336 : 3e;
 337 : 00;
 338 : 3e;
 339 : 63;
 33A : 63;
 33B : 0e;
 33C : 63;
 33D : 63;
 33E : 3e;
 33F : 00;
 340 : 06;
 341 : 0e;
 342 : 1e;
 343 : 26;
 344 : 7f;
 345 : 06;
 346 : 06;
 347 : 00;
 348 : 06;
 349 : 0e;
 34A : 1e;
 34B : 26;
 34C : 7f;
 34D : 06;
 34E : 06;
 34F : 00;
 350 : 7f;
 351 : 63;
 352 : 60;
 353 : 7e;
 354 : 03;
 355 : 63;
 356 : 3e;
 357 : 00;
 358 : 7f;
 359 : 63;
 35A : 60;
 35B : 7e;
 35C : 03;
 35D : 63;
 35E : 3e;
 35F : 00;
 360 : 3e;
 361 : 63;
 362 : 60;
 363 : 7e;
 364 : 63;
 365 : 63;
 366 : 3e;
 367 : 00;
 368 : 3e;
 369 : 63;
 36A : 60;
 36B : 7e;
 36C : 63;
 36D : 63;
 36E : 3e;
 36F : 00;
 370 : 7f;
 371 : 63;
 372 : 06;
 373 : 0c;
 374 : 18;
 375 : 18;
 376 : 3c;
 377 : 00;
 378 : 7f;
 379 : 63;
 37A : 06;
 37B : 0c;
 37C : 18;
 37D : 18;
 37E : 3c;
 37F : 00;
 380 : 3e;
 381 : 63;
 382 : 63;
 383 : 3e;
 384 : 63;
 385 : 63;
 386 : 3e;
 387 : 00;
 388 : 3e;
 389 : 63;
 38A : 63;
 38B : 3e;
 38C : 63;
 38D : 63;
 38E : 3e;
 38F : 00;
 390 : 3e;
 391 : 63;
 392 : 63;
 393 : 3f;
 394 : 03;
 395 : 63;
 396 : 3e;
 397 : 00;
 398 : 3e;
 399 : 63;
 39A : 63;
 39B : 3f;
 39C : 03;
 39D : 63;
 39E : 3e;
 39F : 00;
 3A0 : 00;
 3A1 : 00;
 3A2 : 18;
 3A3 : 18;
 3A4 : 00;
 3A5 : 18;
 3A6 : 18;
 3A7 : 00;
 3A8 : 00;
 3A9 : 00;
 3AA : 18;
 3AB : 18;
 3AC : 00;
 3AD : 18;
 3AE : 18;
 3AF : 00;
 3B0 : 00;
 3B1 : 00;
 3B2 : 18;
 3B3 : 18;
 3B4 : 00;
 3B5 : 18;
 3B6 : 18;
 3B7 : 30;
 3B8 : 00;
 3B9 : 00;
 3BA : 18;
 3BB : 18;
 3BC : 00;
 3BD : 18;
 3BE : 18;
 3BF : 30;
 3C0 : 0e;
 3C1 : 18;
 3C2 : 30;
 3C3 : 60;
 3C4 : 30;
 3C5 : 18;
 3C6 : 0e;
 3C7 : 00;
 3C8 : 0e;
 3C9 : 18;
 3CA : 30;
 3CB : 60;
 3CC : 30;
 3CD : 18;
 3CE : 0e;
 3CF : 00;
 3D0 : 00;
 3D1 : 00;
 3D2 : 7e;
 3D3 : 00;
 3D4 : 7e;
 3D5 : 00;
 3D6 : 00;
 3D7 : 00;
 3D8 : 00;
 3D9 : 00;
 3DA : 7e;
 3DB : 00;
 3DC : 7e;
 3DD : 00;
 3DE : 00;
 3DF : 00;
 3E0 : 70;
 3E1 : 18;
 3E2 : 0c;
 3E3 : 06;
 3E4 : 0c;
 3E5 : 18;
 3E6 : 70;
 3E7 : 00;
 3E8 : 70;
 3E9 : 18;
 3EA : 0c;
 3EB : 06;
 3EC : 0c;
 3ED : 18;
 3EE : 70;
 3EF : 00;
 3F0 : 7e;
 3F1 : 63;
 3F2 : 03;
 3F3 : 06;
 3F4 : 1c;
 3F5 : 00;
 3F6 : 18;
 3F7 : 18;
 3F8 : 7e;
 3F9 : 63;
 3FA : 03;
 3FB : 06;
 3FC : 1c;
 3FD : 00;
 3FE : 18;
 3FF : 18;
 400 : 7c;
 401 : c6;
 402 : ce;
 403 : ee;
 404 : e0;
 405 : e6;
 406 : 7c;
 407 : 00;
 408 : 7c;
 409 : c6;
 40A : ce;
 40B : ee;
 40C : e0;
 40D : e6;
 40E : 7c;
 40F : 00;
 410 : 1c;
 411 : 36;
 412 : 63;
 413 : 7f;
 414 : 63;
 415 : 63;
 416 : 63;
 417 : 00;
 418 : 1c;
 419 : 36;
 41A : 63;
 41B : 7f;
 41C : 63;
 41D : 63;
 41E : 63;
 41F : 00;
 420 : 6e;
 421 : 73;
 422 : 63;
 423 : 7e;
 424 : 63;
 425 : 63;
 426 : 7e;
 427 : 00;
 428 : 6e;
 429 : 73;
 42A : 63;
 42B : 7e;
 42C : 63;
 42D : 63;
 42E : 7e;
 42F : 00;
 430 : 1e;
 431 : 33;
 432 : 60;
 433 : 60;
 434 : 60;
 435 : 33;
 436 : 1e;
 437 : 00;
 438 : 1e;
 439 : 33;
 43A : 60;
 43B : 60;
 43C : 60;
 43D : 33;
 43E : 1e;
 43F : 00;
 440 : 6c;
 441 : 76;
 442 : 63;
 443 : 63;
 444 : 63;
 445 : 66;
 446 : 7c;
 447 : 00;
 448 : 6c;
 449 : 76;
 44A : 63;
 44B : 63;
 44C : 63;
 44D : 66;
 44E : 7c;
 44F : 00;
 450 : 7f;
 451 : 31;
 452 : 30;
 453 : 3c;
 454 : 30;
 455 : 31;
 456 : 7f;
 457 : 00;
 458 : 7f;
 459 : 31;
 45A : 30;
 45B : 3c;
 45C : 30;
 45D : 31;
 45E : 7f;
 45F : 00;
 460 : 7f;
 461 : 31;
 462 : 30;
 463 : 3c;
 464 : 30;
 465 : 30;
 466 : 78;
 467 : 00;
 468 : 7f;
 469 : 31;
 46A : 30;
 46B : 3c;
 46C : 30;
 46D : 30;
 46E : 78;
 46F : 00;
 470 : 1e;
 471 : 33;
 472 : 60;
 473 : 67;
 474 : 63;
 475 : 37;
 476 : 1d;
 477 : 00;
 478 : 1e;
 479 : 33;
 47A : 60;
 47B : 67;
 47C : 63;
 47D : 37;
 47E : 1d;
 47F : 00;
 480 : 63;
 481 : 63;
 482 : 63;
 483 : 7f;
 484 : 63;
 485 : 63;
 486 : 63;
 487 : 00;
 488 : 63;
 489 : 63;
 48A : 63;
 48B : 7f;
 48C : 63;
 48D : 63;
 48E : 63;
 48F : 00;
 490 : 3c;
 491 : 18;
 492 : 18;
 493 : 18;
 494 : 18;
 495 : 18;
 496 : 3c;
 497 : 00;
 498 : 3c;
 499 : 18;
 49A : 18;
 49B : 18;
 49C : 18;
 49D : 18;
 49E : 3c;
 49F : 00;
 4A0 : 1f;
 4A1 : 06;
 4A2 : 06;
 4A3 : 06;
 4A4 : 06;
 4A5 : 66;
 4A6 : 3c;
 4A7 : 00;
 4A8 : 1f;
 4A9 : 06;
 4AA : 06;
 4AB : 06;
 4AC : 06;
 4AD : 66;
 4AE : 3c;
 4AF : 00;
 4B0 : 66;
 4B1 : 66;
 4B2 : 6c;
 4B3 : 78;
 4B4 : 6c;
 4B5 : 67;
 4B6 : 63;
 4B7 : 00;
 4B8 : 66;
 4B9 : 66;
 4BA : 6c;
 4BB : 78;
 4BC : 6c;
 4BD : 67;
 4BE : 63;
 4BF : 00;
 4C0 : 78;
 4C1 : 30;
 4C2 : 60;
 4C3 : 60;
 4C4 : 63;
 4C5 : 63;
 4C6 : 7e;
 4C7 : 00;
 4C8 : 78;
 4C9 : 30;
 4CA : 60;
 4CB : 60;
 4CC : 63;
 4CD : 63;
 4CE : 7e;
 4CF : 00;
 4D0 : 63;
 4D1 : 77;
 4D2 : 7f;
 4D3 : 6b;
 4D4 : 63;
 4D5 : 63;
 4D6 : 63;
 4D7 : 00;
 4D8 : 63;
 4D9 : 77;
 4DA : 7f;
 4DB : 6b;
 4DC : 63;
 4DD : 63;
 4DE : 63;
 4DF : 00;
 4E0 : 63;
 4E1 : 73;
 4E2 : 7b;
 4E3 : 6f;
 4E4 : 67;
 4E5 : 63;
 4E6 : 63;
 4E7 : 00;
 4E8 : 63;
 4E9 : 73;
 4EA : 7b;
 4EB : 6f;
 4EC : 67;
 4ED : 63;
 4EE : 63;
 4EF : 00;
 4F0 : 1c;
 4F1 : 36;
 4F2 : 63;
 4F3 : 63;
 4F4 : 63;
 4F5 : 36;
 4F6 : 1c;
 4F7 : 00;
 4F8 : 1c;
 4F9 : 36;
 4FA : 63;
 4FB : 63;
 4FC : 63;
 4FD : 36;
 4FE : 1c;
 4FF : 00;
 500 : 6e;
 501 : 73;
 502 : 63;
 503 : 7e;
 504 : 60;
 505 : 60;
 506 : 60;
 507 : 00;
 508 : 6e;
 509 : 73;
 50A : 63;
 50B : 7e;
 50C : 60;
 50D : 60;
 50E : 60;
 50F : 00;
 510 : 1c;
 511 : 36;
 512 : 63;
 513 : 6b;
 514 : 67;
 515 : 36;
 516 : 1d;
 517 : 00;
 518 : 1c;
 519 : 36;
 51A : 63;
 51B : 6b;
 51C : 67;
 51D : 36;
 51E : 1d;
 51F : 00;
 520 : 6e;
 521 : 73;
 522 : 63;
 523 : 7e;
 524 : 6c;
 525 : 67;
 526 : 63;
 527 : 00;
 528 : 6e;
 529 : 73;
 52A : 63;
 52B : 7e;
 52C : 6c;
 52D : 67;
 52E : 63;
 52F : 00;
 530 : 3e;
 531 : 63;
 532 : 60;
 533 : 3e;
 534 : 03;
 535 : 63;
 536 : 3e;
 537 : 00;
 538 : 3e;
 539 : 63;
 53A : 60;
 53B : 3e;
 53C : 03;
 53D : 63;
 53E : 3e;
 53F : 00;
 540 : 7e;
 541 : 5a;
 542 : 18;
 543 : 18;
 544 : 18;
 545 : 18;
 546 : 3c;
 547 : 00;
 548 : 7e;
 549 : 5a;
 54A : 18;
 54B : 18;
 54C : 18;
 54D : 18;
 54E : 3c;
 54F : 00;
 550 : 73;
 551 : 33;
 552 : 63;
 553 : 63;
 554 : 63;
 555 : 76;
 556 : 3c;
 557 : 00;
 558 : 73;
 559 : 33;
 55A : 63;
 55B : 63;
 55C : 63;
 55D : 76;
 55E : 3c;
 55F : 00;
 560 : 73;
 561 : 33;
 562 : 63;
 563 : 63;
 564 : 66;
 565 : 3c;
 566 : 18;
 567 : 00;
 568 : 73;
 569 : 33;
 56A : 63;
 56B : 63;
 56C : 66;
 56D : 3c;
 56E : 18;
 56F : 00;
 570 : 73;
 571 : 33;
 572 : 63;
 573 : 6b;
 574 : 7f;
 575 : 77;
 576 : 63;
 577 : 00;
 578 : 73;
 579 : 33;
 57A : 63;
 57B : 6b;
 57C : 7f;
 57D : 77;
 57E : 63;
 57F : 00;
 580 : 63;
 581 : 63;
 582 : 36;
 583 : 1c;
 584 : 36;
 585 : 63;
 586 : 63;
 587 : 00;
 588 : 63;
 589 : 63;
 58A : 36;
 58B : 1c;
 58C : 36;
 58D : 63;
 58E : 63;
 58F : 00;
 590 : 33;
 591 : 63;
 592 : 63;
 593 : 36;
 594 : 1c;
 595 : 78;
 596 : 70;
 597 : 00;
 598 : 33;
 599 : 63;
 59A : 63;
 59B : 36;
 59C : 1c;
 59D : 78;
 59E : 70;
 59F : 00;
 5A0 : 7f;
 5A1 : 63;
 5A2 : 06;
 5A3 : 1c;
 5A4 : 33;
 5A5 : 63;
 5A6 : 7e;
 5A7 : 00;
 5A8 : 7f;
 5A9 : 63;
 5AA : 06;
 5AB : 1c;
 5AC : 33;
 5AD : 63;
 5AE : 7e;
 5AF : 00;
 5B0 : 3c;
 5B1 : 30;
 5B2 : 30;
 5B3 : 30;
 5B4 : 30;
 5B5 : 30;
 5B6 : 3c;
 5B7 : 00;
 5B8 : 3c;
 5B9 : 30;
 5BA : 30;
 5BB : 30;
 5BC : 30;
 5BD : 30;
 5BE : 3c;
 5BF : 00;
 5C0 : 40;
 5C1 : 60;
 5C2 : 30;
 5C3 : 18;
 5C4 : 0c;
 5C5 : 06;
 5C6 : 02;
 5C7 : 00;
 5C8 : 40;
 5C9 : 60;
 5CA : 30;
 5CB : 18;
 5CC : 0c;
 5CD : 06;
 5CE : 02;
 5CF : 00;
 5D0 : 3c;
 5D1 : 0c;
 5D2 : 0c;
 5D3 : 0c;
 5D4 : 0c;
 5D5 : 0c;
 5D6 : 3c;
 5D7 : 00;
 5D8 : 3c;
 5D9 : 0c;
 5DA : 0c;
 5DB : 0c;
 5DC : 0c;
 5DD : 0c;
 5DE : 3c;
 5DF : 00;
 5E0 : 00;
 5E1 : 18;
 5E2 : 3c;
 5E3 : 7e;
 5E4 : 18;
 5E5 : 18;
 5E6 : 18;
 5E7 : 18;
 5E8 : 00;
 5E9 : 18;
 5EA : 3c;
 5EB : 7e;
 5EC : 18;
 5ED : 18;
 5EE : 18;
 5EF : 18;
 5F0 : 00;
 5F1 : 00;
 5F2 : 00;
 5F3 : 00;
 5F4 : 00;
 5F5 : 00;
 5F6 : ff;
 5F7 : ff;
 5F8 : 00;
 5F9 : 00;
 5FA : 00;
 5FB : 00;
 5FC : 00;
 5FD : 00;
 5FE : ff;
 5FF : ff;
 600 : 30;
 601 : 30;
 602 : 18;
 603 : 00;
 604 : 00;
 605 : 00;
 606 : 00;
 607 : 00;
 608 : 30;
 609 : 30;
 60A : 18;
 60B : 00;
 60C : 00;
 60D : 00;
 60E : 00;
 60F : 00;
 610 : 00;
 611 : 00;
 612 : 3f;
 613 : 63;
 614 : 63;
 615 : 67;
 616 : 3b;
 617 : 00;
 618 : 00;
 619 : 00;
 61A : 3f;
 61B : 63;
 61C : 63;
 61D : 67;
 61E : 3b;
 61F : 00;
 620 : 60;
 621 : 60;
 622 : 6e;
 623 : 73;
 624 : 63;
 625 : 63;
 626 : 3e;
 627 : 00;
 628 : 60;
 629 : 60;
 62A : 6e;
 62B : 73;
 62C : 63;
 62D : 63;
 62E : 3e;
 62F : 00;
 630 : 00;
 631 : 00;
 632 : 3e;
 633 : 63;
 634 : 60;
 635 : 63;
 636 : 3e;
 637 : 00;
 638 : 00;
 639 : 00;
 63A : 3e;
 63B : 63;
 63C : 60;
 63D : 63;
 63E : 3e;
 63F : 00;
 640 : 03;
 641 : 03;
 642 : 3b;
 643 : 67;
 644 : 63;
 645 : 63;
 646 : 3e;
 647 : 00;
 648 : 03;
 649 : 03;
 64A : 3b;
 64B : 67;
 64C : 63;
 64D : 63;
 64E : 3e;
 64F : 00;
 650 : 00;
 651 : 00;
 652 : 3e;
 653 : 61;
 654 : 7f;
 655 : 60;
 656 : 3e;
 657 : 00;
 658 : 00;
 659 : 00;
 65A : 3e;
 65B : 61;
 65C : 7f;
 65D : 60;
 65E : 3e;
 65F : 00;
 660 : 0e;
 661 : 18;
 662 : 18;
 663 : 3c;
 664 : 18;
 665 : 18;
 666 : 3c;
 667 : 00;
 668 : 0e;
 669 : 18;
 66A : 18;
 66B : 3c;
 66C : 18;
 66D : 18;
 66E : 3c;
 66F : 00;
 670 : 00;
 671 : 00;
 672 : 3e;
 673 : 60;
 674 : 63;
 675 : 63;
 676 : 3d;
 677 : 00;
 678 : 00;
 679 : 00;
 67A : 3e;
 67B : 60;
 67C : 63;
 67D : 63;
 67E : 3d;
 67F : 00;
 680 : 60;
 681 : 60;
 682 : 6e;
 683 : 73;
 684 : 63;
 685 : 66;
 686 : 67;
 687 : 00;
 688 : 60;
 689 : 60;
 68A : 6e;
 68B : 73;
 68C : 63;
 68D : 66;
 68E : 67;
 68F : 00;
 690 : 00;
 691 : 00;
 692 : 1e;
 693 : 0c;
 694 : 0c;
 695 : 0c;
 696 : 1e;
 697 : 00;
 698 : 00;
 699 : 00;
 69A : 1e;
 69B : 0c;
 69C : 0c;
 69D : 0c;
 69E : 1e;
 69F : 00;
 6A0 : 00;
 6A1 : 00;
 6A2 : 3f;
 6A3 : 06;
 6A4 : 06;
 6A5 : 06;
 6A6 : 66;
 6A7 : 3c;
 6A8 : 00;
 6A9 : 00;
 6AA : 3f;
 6AB : 06;
 6AC : 06;
 6AD : 06;
 6AE : 66;
 6AF : 3c;
 6B0 : 60;
 6B1 : 60;
 6B2 : 66;
 6B3 : 6e;
 6B4 : 7c;
 6B5 : 67;
 6B6 : 63;
 6B7 : 00;
 6B8 : 60;
 6B9 : 60;
 6BA : 66;
 6BB : 6e;
 6BC : 7c;
 6BD : 67;
 6BE : 63;
 6BF : 00;
 6C0 : 1c;
 6C1 : 0c;
 6C2 : 0c;
 6C3 : 0c;
 6C4 : 0c;
 6C5 : 0c;
 6C6 : 1e;
 6C7 : 00;
 6C8 : 1c;
 6C9 : 0c;
 6CA : 0c;
 6CB : 0c;
 6CC : 0c;
 6CD : 0c;
 6CE : 1e;
 6CF : 00;
 6D0 : 00;
 6D1 : 00;
 6D2 : 6e;
 6D3 : 7f;
 6D4 : 6b;
 6D5 : 62;
 6D6 : 67;
 6D7 : 00;
 6D8 : 00;
 6D9 : 00;
 6DA : 6e;
 6DB : 7f;
 6DC : 6b;
 6DD : 62;
 6DE : 67;
 6DF : 00;
 6E0 : 00;
 6E1 : 00;
 6E2 : 6e;
 6E3 : 73;
 6E4 : 63;
 6E5 : 66;
 6E6 : 67;
 6E7 : 00;
 6E8 : 00;
 6E9 : 00;
 6EA : 6e;
 6EB : 73;
 6EC : 63;
 6ED : 66;
 6EE : 67;
 6EF : 00;
 6F0 : 00;
 6F1 : 00;
 6F2 : 3e;
 6F3 : 63;
 6F4 : 63;
 6F5 : 63;
 6F6 : 3e;
 6F7 : 00;
 6F8 : 00;
 6F9 : 00;
 6FA : 3e;
 6FB : 63;
 6FC : 63;
 6FD : 63;
 6FE : 3e;
 6FF : 00;
 700 : 00;
 701 : 00;
 702 : 3e;
 703 : 63;
 704 : 73;
 705 : 6e;
 706 : 60;
 707 : 60;
 708 : 00;
 709 : 00;
 70A : 3e;
 70B : 63;
 70C : 73;
 70D : 6e;
 70E : 60;
 70F : 60;
 710 : 00;
 711 : 00;
 712 : 3e;
 713 : 63;
 714 : 67;
 715 : 3b;
 716 : 03;
 717 : 03;
 718 : 00;
 719 : 00;
 71A : 3e;
 71B : 63;
 71C : 67;
 71D : 3b;
 71E : 03;
 71F : 03;
 720 : 00;
 721 : 00;
 722 : 6e;
 723 : 73;
 724 : 63;
 725 : 7e;
 726 : 63;
 727 : 00;
 728 : 00;
 729 : 00;
 72A : 6e;
 72B : 73;
 72C : 63;
 72D : 7e;
 72E : 63;
 72F : 00;
 730 : 00;
 731 : 00;
 732 : 3e;
 733 : 71;
 734 : 1c;
 735 : 47;
 736 : 3e;
 737 : 00;
 738 : 00;
 739 : 00;
 73A : 3e;
 73B : 71;
 73C : 1c;
 73D : 47;
 73E : 3e;
 73F : 00;
 740 : 06;
 741 : 0c;
 742 : 3f;
 743 : 18;
 744 : 18;
 745 : 1b;
 746 : 0e;
 747 : 00;
 748 : 06;
 749 : 0c;
 74A : 3f;
 74B : 18;
 74C : 18;
 74D : 1b;
 74E : 0e;
 74F : 00;
 750 : 00;
 751 : 00;
 752 : 73;
 753 : 33;
 754 : 63;
 755 : 67;
 756 : 3b;
 757 : 00;
 758 : 00;
 759 : 00;
 75A : 73;
 75B : 33;
 75C : 63;
 75D : 67;
 75E : 3b;
 75F : 00;
 760 : 00;
 761 : 00;
 762 : 73;
 763 : 33;
 764 : 63;
 765 : 66;
 766 : 3c;
 767 : 00;
 768 : 00;
 769 : 00;
 76A : 73;
 76B : 33;
 76C : 63;
 76D : 66;
 76E : 3c;
 76F : 00;
 770 : 00;
 771 : 00;
 772 : 63;
 773 : 6b;
 774 : 7f;
 775 : 77;
 776 : 63;
 777 : 00;
 778 : 00;
 779 : 00;
 77A : 63;
 77B : 6b;
 77C : 7f;
 77D : 77;
 77E : 63;
 77F : 00;
 780 : 00;
 781 : 00;
 782 : 63;
 783 : 36;
 784 : 1c;
 785 : 36;
 786 : 63;
 787 : 00;
 788 : 00;
 789 : 00;
 78A : 63;
 78B : 36;
 78C : 1c;
 78D : 36;
 78E : 63;
 78F : 00;
 790 : 00;
 791 : 00;
 792 : 33;
 793 : 63;
 794 : 63;
 795 : 3f;
 796 : 03;
 797 : 3e;
 798 : 00;
 799 : 00;
 79A : 33;
 79B : 63;
 79C : 63;
 79D : 3f;
 79E : 03;
 79F : 3e;
 7A0 : 00;
 7A1 : 00;
 7A2 : 7f;
 7A3 : 0e;
 7A4 : 1c;
 7A5 : 38;
 7A6 : 7f;
 7A7 : 00;
 7A8 : 00;
 7A9 : 00;
 7AA : 7f;
 7AB : 0e;
 7AC : 1c;
 7AD : 38;
 7AE : 7f;
 7AF : 00;
 7B0 : 3c;
 7B1 : 42;
 7B2 : 99;
 7B3 : a1;
 7B4 : a1;
 7B5 : 99;
 7B6 : 42;
 7B7 : 3c;
 7B8 : 3c;
 7B9 : 42;
 7BA : 99;
 7BB : a1;
 7BC : a1;
 7BD : 99;
 7BE : 42;
 7BF : 3c;
 7C0 : 00;
 7C1 : 00;
 7C2 : 00;
 7C3 : 00;
 7C4 : 00;
 7C5 : 00;
 7C6 : 00;
 7C7 : 00;
 7C8 : 00;
 7C9 : 00;
 7CA : 00;
 7CB : 00;
 7CC : 00;
 7CD : 00;
 7CE : 00;
 7CF : 00;
 7D0 : 00;
 7D1 : 00;
 7D2 : 00;
 7D3 : 00;
 7D4 : 00;
 7D5 : 00;
 7D6 : 00;
 7D7 : 00;
 7D8 : 00;
 7D9 : 00;
 7DA : 00;
 7DB : 00;
 7DC : 00;
 7DD : 00;
 7DE : 00;
 7DF : 00;
 7E0 : 00;
 7E1 : 00;
 7E2 : 00;
 7E3 : 00;
 7E4 : 00;
 7E5 : 00;
 7E6 : 00;
 7E7 : 00;
 7E8 : 00;
 7E9 : 00;
 7EA : 00;
 7EB : 00;
 7EC : 00;
 7ED : 00;
 7EE : 00;
 7EF : 00;
 7F0 : 00;
 7F1 : 00;
 7F2 : 00;
 7F3 : 00;
 7F4 : 00;
 7F5 : 00;
 7F6 : 00;
 7F7 : 00;
 7F8 : 00;
 7F9 : 00;
 7FA : 00;
 7FB : 00;
 7FC : 00;
 7FD : 00;
 7FE : 00;
 7FF : 00;
 800 : 00;
 801 : 00;
 802 : 00;
 803 : 00;
 804 : 00;
 805 : 00;
 806 : 00;
 807 : 00;
 808 : 00;
 809 : 00;
 80A : 00;
 80B : 00;
 80C : 00;
 80D : 00;
 80E : 00;
 80F : 00;
 810 : 00;
 811 : 00;
 812 : 00;
 813 : 00;
 814 : 00;
 815 : 00;
 816 : 00;
 817 : 00;
 818 : 00;
 819 : 00;
 81A : 00;
 81B : 00;
 81C : 00;
 81D : 00;
 81E : 00;
 81F : 00;
 820 : 00;
 821 : 00;
 822 : 00;
 823 : 00;
 824 : 00;
 825 : 00;
 826 : 00;
 827 : 00;
 828 : 00;
 829 : 00;
 82A : 00;
 82B : 00;
 82C : 00;
 82D : 00;
 82E : 00;
 82F : 00;
 830 : 00;
 831 : 00;
 832 : 00;
 833 : 00;
 834 : 00;
 835 : 00;
 836 : 00;
 837 : 00;
 838 : 00;
 839 : 00;
 83A : 00;
 83B : 00;
 83C : 00;
 83D : 00;
 83E : 00;
 83F : 00;
 840 : 00;
 841 : 00;
 842 : 00;
 843 : 00;
 844 : 00;
 845 : 00;
 846 : 00;
 847 : 00;
 848 : 00;
 849 : 00;
 84A : 00;
 84B : 00;
 84C : 00;
 84D : 00;
 84E : 00;
 84F : 00;
 850 : 00;
 851 : 00;
 852 : 00;
 853 : 00;
 854 : 00;
 855 : 00;
 856 : 00;
 857 : 00;
 858 : 00;
 859 : 00;
 85A : 00;
 85B : 00;
 85C : 00;
 85D : 00;
 85E : 00;
 85F : 00;
 860 : 00;
 861 : 00;
 862 : 00;
 863 : 00;
 864 : 00;
 865 : 00;
 866 : 00;
 867 : 00;
 868 : 00;
 869 : 00;
 86A : 00;
 86B : 00;
 86C : 00;
 86D : 00;
 86E : 00;
 86F : 00;
 870 : 00;
 871 : 00;
 872 : 00;
 873 : 00;
 874 : 00;
 875 : 00;
 876 : 00;
 877 : 00;
 878 : 00;
 879 : 00;
 87A : 00;
 87B : 00;
 87C : 00;
 87D : 00;
 87E : 00;
 87F : 00;
 880 : 00;
 881 : 00;
 882 : 00;
 883 : 00;
 884 : 00;
 885 : 00;
 886 : 00;
 887 : 00;
 888 : 00;
 889 : 00;
 88A : 00;
 88B : 00;
 88C : 00;
 88D : 00;
 88E : 00;
 88F : 00;
 890 : 00;
 891 : 00;
 892 : 00;
 893 : 00;
 894 : 00;
 895 : 00;
 896 : 00;
 897 : 00;
 898 : 00;
 899 : 00;
 89A : 00;
 89B : 00;
 89C : 00;
 89D : 00;
 89E : 00;
 89F : 00;
 8A0 : 00;
 8A1 : 00;
 8A2 : 00;
 8A3 : 00;
 8A4 : 00;
 8A5 : 00;
 8A6 : 00;
 8A7 : 00;
 8A8 : 00;
 8A9 : 00;
 8AA : 00;
 8AB : 00;
 8AC : 00;
 8AD : 00;
 8AE : 00;
 8AF : 00;
 8B0 : 00;
 8B1 : 00;
 8B2 : 00;
 8B3 : 00;
 8B4 : 00;
 8B5 : 00;
 8B6 : 00;
 8B7 : 00;
 8B8 : 00;
 8B9 : 00;
 8BA : 00;
 8BB : 00;
 8BC : 00;
 8BD : 00;
 8BE : 00;
 8BF : 00;
 8C0 : 00;
 8C1 : 00;
 8C2 : 00;
 8C3 : 00;
 8C4 : 00;
 8C5 : 00;
 8C6 : 00;
 8C7 : 00;
 8C8 : 00;
 8C9 : 00;
 8CA : 00;
 8CB : 00;
 8CC : 00;
 8CD : 00;
 8CE : 00;
 8CF : 00;
 8D0 : 00;
 8D1 : 00;
 8D2 : 00;
 8D3 : 00;
 8D4 : 00;
 8D5 : 00;
 8D6 : 00;
 8D7 : 00;
 8D8 : 00;
 8D9 : 00;
 8DA : 00;
 8DB : 00;
 8DC : 00;
 8DD : 00;
 8DE : 00;
 8DF : 00;
 8E0 : 00;
 8E1 : 00;
 8E2 : 00;
 8E3 : 00;
 8E4 : 00;
 8E5 : 00;
 8E6 : 00;
 8E7 : 00;
 8E8 : 00;
 8E9 : 00;
 8EA : 00;
 8EB : 00;
 8EC : 00;
 8ED : 00;
 8EE : 00;
 8EF : 00;
 8F0 : 00;
 8F1 : 00;
 8F2 : 00;
 8F3 : 00;
 8F4 : 00;
 8F5 : 00;
 8F6 : 00;
 8F7 : 00;
 8F8 : 00;
 8F9 : 00;
 8FA : 00;
 8FB : 00;
 8FC : 00;
 8FD : 00;
 8FE : 00;
 8FF : 00;
 900 : 00;
 901 : 00;
 902 : 00;
 903 : 00;
 904 : 00;
 905 : 00;
 906 : 00;
 907 : 00;
 908 : 00;
 909 : 00;
 90A : 00;
 90B : 00;
 90C : 00;
 90D : 00;
 90E : 00;
 90F : 00;
 910 : 00;
 911 : 00;
 912 : 00;
 913 : 00;
 914 : 00;
 915 : 00;
 916 : 00;
 917 : 00;
 918 : 00;
 919 : 00;
 91A : 00;
 91B : 00;
 91C : 00;
 91D : 00;
 91E : 00;
 91F : 00;
 920 : 00;
 921 : 00;
 922 : 00;
 923 : 00;
 924 : 00;
 925 : 00;
 926 : 00;
 927 : 00;
 928 : 00;
 929 : 00;
 92A : 00;
 92B : 00;
 92C : 00;
 92D : 00;
 92E : 00;
 92F : 00;
 930 : 00;
 931 : 00;
 932 : 00;
 933 : 00;
 934 : 00;
 935 : 00;
 936 : 00;
 937 : 00;
 938 : 00;
 939 : 00;
 93A : 00;
 93B : 00;
 93C : 00;
 93D : 00;
 93E : 00;
 93F : 00;
 940 : 00;
 941 : 00;
 942 : 00;
 943 : 00;
 944 : 00;
 945 : 00;
 946 : 00;
 947 : 00;
 948 : 00;
 949 : 00;
 94A : 00;
 94B : 00;
 94C : 00;
 94D : 00;
 94E : 00;
 94F : 00;
 950 : 00;
 951 : 00;
 952 : 00;
 953 : 00;
 954 : 00;
 955 : 00;
 956 : 00;
 957 : 00;
 958 : 00;
 959 : 00;
 95A : 00;
 95B : 00;
 95C : 00;
 95D : 00;
 95E : 00;
 95F : 00;
 960 : 00;
 961 : 00;
 962 : 00;
 963 : 00;
 964 : 00;
 965 : 00;
 966 : 00;
 967 : 00;
 968 : 00;
 969 : 00;
 96A : 00;
 96B : 00;
 96C : 00;
 96D : 00;
 96E : 00;
 96F : 00;
 970 : 00;
 971 : 00;
 972 : 00;
 973 : 00;
 974 : 00;
 975 : 00;
 976 : 00;
 977 : 00;
 978 : 00;
 979 : 00;
 97A : 00;
 97B : 00;
 97C : 00;
 97D : 00;
 97E : 00;
 97F : 00;
 980 : 00;
 981 : 00;
 982 : 00;
 983 : 00;
 984 : 00;
 985 : 00;
 986 : 00;
 987 : 00;
 988 : 00;
 989 : 00;
 98A : 00;
 98B : 00;
 98C : 00;
 98D : 00;
 98E : 00;
 98F : 00;
 990 : 00;
 991 : 00;
 992 : 00;
 993 : 00;
 994 : 00;
 995 : 00;
 996 : 00;
 997 : 00;
 998 : 00;
 999 : 00;
 99A : 00;
 99B : 00;
 99C : 00;
 99D : 00;
 99E : 00;
 99F : 00;
 9A0 : 00;
 9A1 : 00;
 9A2 : 00;
 9A3 : 00;
 9A4 : 00;
 9A5 : 00;
 9A6 : 00;
 9A7 : 00;
 9A8 : 00;
 9A9 : 00;
 9AA : 00;
 9AB : 00;
 9AC : 00;
 9AD : 00;
 9AE : 00;
 9AF : 00;
 9B0 : 00;
 9B1 : 00;
 9B2 : 00;
 9B3 : 00;
 9B4 : 00;
 9B5 : 00;
 9B6 : 00;
 9B7 : 00;
 9B8 : 00;
 9B9 : 00;
 9BA : 00;
 9BB : 00;
 9BC : 00;
 9BD : 00;
 9BE : 00;
 9BF : 00;
 9C0 : 00;
 9C1 : 00;
 9C2 : 00;
 9C3 : 00;
 9C4 : 00;
 9C5 : 00;
 9C6 : 00;
 9C7 : 00;
 9C8 : 00;
 9C9 : 00;
 9CA : 00;
 9CB : 00;
 9CC : 00;
 9CD : 00;
 9CE : 00;
 9CF : 00;
 9D0 : 00;
 9D1 : 00;
 9D2 : 00;
 9D3 : 00;
 9D4 : 00;
 9D5 : 00;
 9D6 : 00;
 9D7 : 00;
 9D8 : 00;
 9D9 : 00;
 9DA : 00;
 9DB : 00;
 9DC : 00;
 9DD : 00;
 9DE : 00;
 9DF : 00;
 9E0 : 00;
 9E1 : 00;
 9E2 : 00;
 9E3 : 00;
 9E4 : 00;
 9E5 : 00;
 9E6 : 00;
 9E7 : 00;
 9E8 : 00;
 9E9 : 00;
 9EA : 00;
 9EB : 00;
 9EC : 00;
 9ED : 00;
 9EE : 00;
 9EF : 00;
 9F0 : 00;
 9F1 : 00;
 9F2 : 00;
 9F3 : 00;
 9F4 : 00;
 9F5 : 00;
 9F6 : 00;
 9F7 : 00;
 9F8 : 00;
 9F9 : 00;
 9FA : 00;
 9FB : 00;
 9FC : 00;
 9FD : 00;
 9FE : 00;
 9FF : 00;
 A00 : 00;
 A01 : 00;
 A02 : 00;
 A03 : 00;
 A04 : 00;
 A05 : 00;
 A06 : 00;
 A07 : 00;
 A08 : 00;
 A09 : 00;
 A0A : 00;
 A0B : 00;
 A0C : 00;
 A0D : 00;
 A0E : 00;
 A0F : 00;
 A10 : 00;
 A11 : 00;
 A12 : 00;
 A13 : 00;
 A14 : 00;
 A15 : 00;
 A16 : 00;
 A17 : 00;
 A18 : 00;
 A19 : 00;
 A1A : 00;
 A1B : 00;
 A1C : 00;
 A1D : 00;
 A1E : 00;
 A1F : 00;
 A20 : 00;
 A21 : 00;
 A22 : 00;
 A23 : 00;
 A24 : 00;
 A25 : 00;
 A26 : 00;
 A27 : 00;
 A28 : 00;
 A29 : 00;
 A2A : 00;
 A2B : 00;
 A2C : 00;
 A2D : 00;
 A2E : 00;
 A2F : 00;
 A30 : 00;
 A31 : 00;
 A32 : 00;
 A33 : 00;
 A34 : 00;
 A35 : 00;
 A36 : 00;
 A37 : 00;
 A38 : 00;
 A39 : 00;
 A3A : 00;
 A3B : 00;
 A3C : 00;
 A3D : 00;
 A3E : 00;
 A3F : 00;
 A40 : 00;
 A41 : 00;
 A42 : 00;
 A43 : 00;
 A44 : 00;
 A45 : 00;
 A46 : 00;
 A47 : 00;
 A48 : 00;
 A49 : 00;
 A4A : 00;
 A4B : 00;
 A4C : 00;
 A4D : 00;
 A4E : 00;
 A4F : 00;
 A50 : 00;
 A51 : 00;
 A52 : 00;
 A53 : 00;
 A54 : 00;
 A55 : 00;
 A56 : 00;
 A57 : 00;
 A58 : 00;
 A59 : 00;
 A5A : 00;
 A5B : 00;
 A5C : 00;
 A5D : 00;
 A5E : 00;
 A5F : 00;
 A60 : 00;
 A61 : 00;
 A62 : 00;
 A63 : 00;
 A64 : 00;
 A65 : 00;
 A66 : 00;
 A67 : 00;
 A68 : 00;
 A69 : 00;
 A6A : 00;
 A6B : 00;
 A6C : 00;
 A6D : 00;
 A6E : 00;
 A6F : 00;
 A70 : 00;
 A71 : 00;
 A72 : 00;
 A73 : 00;
 A74 : 00;
 A75 : 00;
 A76 : 00;
 A77 : 00;
 A78 : 00;
 A79 : 00;
 A7A : 00;
 A7B : 00;
 A7C : 00;
 A7D : 00;
 A7E : 00;
 A7F : 00;
 A80 : 00;
 A81 : 00;
 A82 : 00;
 A83 : 00;
 A84 : 00;
 A85 : 00;
 A86 : 00;
 A87 : 00;
 A88 : 00;
 A89 : 00;
 A8A : 00;
 A8B : 00;
 A8C : 00;
 A8D : 00;
 A8E : 00;
 A8F : 00;
 A90 : 00;
 A91 : 00;
 A92 : 00;
 A93 : 00;
 A94 : 00;
 A95 : 00;
 A96 : 00;
 A97 : 00;
 A98 : 00;
 A99 : 00;
 A9A : 00;
 A9B : 00;
 A9C : 00;
 A9D : 00;
 A9E : 00;
 A9F : 00;
 AA0 : 00;
 AA1 : 00;
 AA2 : 00;
 AA3 : 00;
 AA4 : 00;
 AA5 : 00;
 AA6 : 00;
 AA7 : 00;
 AA8 : 00;
 AA9 : 00;
 AAA : 00;
 AAB : 00;
 AAC : 00;
 AAD : 00;
 AAE : 00;
 AAF : 00;
 AB0 : 00;
 AB1 : 00;
 AB2 : 00;
 AB3 : 00;
 AB4 : 00;
 AB5 : 00;
 AB6 : 00;
 AB7 : 00;
 AB8 : 00;
 AB9 : 00;
 ABA : 00;
 ABB : 00;
 ABC : 00;
 ABD : 00;
 ABE : 00;
 ABF : 00;
 AC0 : 00;
 AC1 : 00;
 AC2 : 00;
 AC3 : 00;
 AC4 : 00;
 AC5 : 00;
 AC6 : 00;
 AC7 : 00;
 AC8 : 00;
 AC9 : 00;
 ACA : 00;
 ACB : 00;
 ACC : 00;
 ACD : 00;
 ACE : 00;
 ACF : 00;
 AD0 : 00;
 AD1 : 00;
 AD2 : 00;
 AD3 : 00;
 AD4 : 00;
 AD5 : 00;
 AD6 : 00;
 AD7 : 00;
 AD8 : 00;
 AD9 : 00;
 ADA : 00;
 ADB : 00;
 ADC : 00;
 ADD : 00;
 ADE : 00;
 ADF : 00;
 AE0 : 00;
 AE1 : 00;
 AE2 : 00;
 AE3 : 00;
 AE4 : 00;
 AE5 : 00;
 AE6 : 00;
 AE7 : 00;
 AE8 : 00;
 AE9 : 00;
 AEA : 00;
 AEB : 00;
 AEC : 00;
 AED : 00;
 AEE : 00;
 AEF : 00;
 AF0 : 00;
 AF1 : 00;
 AF2 : 00;
 AF3 : 00;
 AF4 : 00;
 AF5 : 00;
 AF6 : 00;
 AF7 : 00;
 AF8 : 00;
 AF9 : 00;
 AFA : 00;
 AFB : 00;
 AFC : 00;
 AFD : 00;
 AFE : 00;
 AFF : 00;
 B00 : 00;
 B01 : 00;
 B02 : 00;
 B03 : 00;
 B04 : 00;
 B05 : 00;
 B06 : 00;
 B07 : 00;
 B08 : 00;
 B09 : 00;
 B0A : 00;
 B0B : 00;
 B0C : 00;
 B0D : 00;
 B0E : 00;
 B0F : 00;
 B10 : 00;
 B11 : 00;
 B12 : 00;
 B13 : 00;
 B14 : 00;
 B15 : 00;
 B16 : 00;
 B17 : 00;
 B18 : 00;
 B19 : 00;
 B1A : 00;
 B1B : 00;
 B1C : 00;
 B1D : 00;
 B1E : 00;
 B1F : 00;
 B20 : 00;
 B21 : 00;
 B22 : 00;
 B23 : 00;
 B24 : 00;
 B25 : 00;
 B26 : 00;
 B27 : 00;
 B28 : 00;
 B29 : 00;
 B2A : 00;
 B2B : 00;
 B2C : 00;
 B2D : 00;
 B2E : 00;
 B2F : 00;
 B30 : 00;
 B31 : 00;
 B32 : 00;
 B33 : 00;
 B34 : 00;
 B35 : 00;
 B36 : 00;
 B37 : 00;
 B38 : 00;
 B39 : 00;
 B3A : 00;
 B3B : 00;
 B3C : 00;
 B3D : 00;
 B3E : 00;
 B3F : 00;
 B40 : 00;
 B41 : 00;
 B42 : 00;
 B43 : 00;
 B44 : 00;
 B45 : 00;
 B46 : 00;
 B47 : 00;
 B48 : 00;
 B49 : 00;
 B4A : 00;
 B4B : 00;
 B4C : 00;
 B4D : 00;
 B4E : 00;
 B4F : 00;
 B50 : 00;
 B51 : 00;
 B52 : 00;
 B53 : 00;
 B54 : 00;
 B55 : 00;
 B56 : 00;
 B57 : 00;
 B58 : 00;
 B59 : 00;
 B5A : 00;
 B5B : 00;
 B5C : 00;
 B5D : 00;
 B5E : 00;
 B5F : 00;
 B60 : 00;
 B61 : 00;
 B62 : 00;
 B63 : 00;
 B64 : 00;
 B65 : 00;
 B66 : 00;
 B67 : 00;
 B68 : 00;
 B69 : 00;
 B6A : 00;
 B6B : 00;
 B6C : 00;
 B6D : 00;
 B6E : 00;
 B6F : 00;
 B70 : 00;
 B71 : 00;
 B72 : 00;
 B73 : 00;
 B74 : 00;
 B75 : 00;
 B76 : 00;
 B77 : 00;
 B78 : 00;
 B79 : 00;
 B7A : 00;
 B7B : 00;
 B7C : 00;
 B7D : 00;
 B7E : 00;
 B7F : 00;
 B80 : 00;
 B81 : 00;
 B82 : 00;
 B83 : 00;
 B84 : 00;
 B85 : 00;
 B86 : 00;
 B87 : 00;
 B88 : 00;
 B89 : 00;
 B8A : 00;
 B8B : 00;
 B8C : 00;
 B8D : 00;
 B8E : 00;
 B8F : 00;
 B90 : 00;
 B91 : 00;
 B92 : 00;
 B93 : 00;
 B94 : 00;
 B95 : 00;
 B96 : 00;
 B97 : 00;
 B98 : 00;
 B99 : 00;
 B9A : 00;
 B9B : 00;
 B9C : 00;
 B9D : 00;
 B9E : 00;
 B9F : 00;
 BA0 : 00;
 BA1 : 00;
 BA2 : 00;
 BA3 : 00;
 BA4 : 00;
 BA5 : 00;
 BA6 : 00;
 BA7 : 00;
 BA8 : 00;
 BA9 : 00;
 BAA : 00;
 BAB : 00;
 BAC : 00;
 BAD : 00;
 BAE : 00;
 BAF : 00;
 BB0 : 00;
 BB1 : 00;
 BB2 : 00;
 BB3 : 00;
 BB4 : 00;
 BB5 : 00;
 BB6 : 00;
 BB7 : 00;
 BB8 : 00;
 BB9 : 00;
 BBA : 00;
 BBB : 00;
 BBC : 00;
 BBD : 00;
 BBE : 00;
 BBF : 00;
 BC0 : 00;
 BC1 : 00;
 BC2 : 00;
 BC3 : 00;
 BC4 : 00;
 BC5 : 00;
 BC6 : 00;
 BC7 : 00;
 BC8 : 00;
 BC9 : 00;
 BCA : 00;
 BCB : 00;
 BCC : 00;
 BCD : 00;
 BCE : 00;
 BCF : 00;
 BD0 : 00;
 BD1 : 00;
 BD2 : 00;
 BD3 : 00;
 BD4 : 00;
 BD5 : 00;
 BD6 : 00;
 BD7 : 00;
 BD8 : 00;
 BD9 : 00;
 BDA : 00;
 BDB : 00;
 BDC : 00;
 BDD : 00;
 BDE : 00;
 BDF : 00;
 BE0 : 00;
 BE1 : 00;
 BE2 : 00;
 BE3 : 00;
 BE4 : 00;
 BE5 : 00;
 BE6 : 00;
 BE7 : 00;
 BE8 : 00;
 BE9 : 00;
 BEA : 00;
 BEB : 00;
 BEC : 00;
 BED : 00;
 BEE : 00;
 BEF : 00;
 BF0 : 00;
 BF1 : 00;
 BF2 : 00;
 BF3 : 00;
 BF4 : 00;
 BF5 : 00;
 BF6 : 00;
 BF7 : 00;
 BF8 : 00;
 BF9 : 00;
 BFA : 00;
 BFB : 00;
 BFC : 00;
 BFD : 00;
 BFE : 00;
 BFF : 00;
 C00 : 00;
 C01 : 00;
 C02 : 00;
 C03 : 00;
 C04 : 00;
 C05 : 00;
 C06 : 00;
 C07 : 00;
 C08 : 00;
 C09 : 00;
 C0A : 00;
 C0B : 00;
 C0C : 00;
 C0D : 00;
 C0E : 00;
 C0F : 00;
 C10 : 00;
 C11 : 00;
 C12 : 00;
 C13 : 00;
 C14 : 00;
 C15 : 00;
 C16 : 00;
 C17 : 00;
 C18 : 00;
 C19 : 00;
 C1A : 00;
 C1B : 00;
 C1C : 00;
 C1D : 00;
 C1E : 00;
 C1F : 00;
 C20 : 00;
 C21 : 00;
 C22 : 00;
 C23 : 00;
 C24 : 00;
 C25 : 00;
 C26 : 00;
 C27 : 00;
 C28 : 00;
 C29 : 00;
 C2A : 00;
 C2B : 00;
 C2C : 00;
 C2D : 00;
 C2E : 00;
 C2F : 00;
 C30 : 00;
 C31 : 00;
 C32 : 00;
 C33 : 00;
 C34 : 00;
 C35 : 00;
 C36 : 00;
 C37 : 00;
 C38 : 00;
 C39 : 00;
 C3A : 00;
 C3B : 00;
 C3C : 00;
 C3D : 00;
 C3E : 00;
 C3F : 00;
 C40 : 00;
 C41 : 00;
 C42 : 00;
 C43 : 00;
 C44 : 00;
 C45 : 00;
 C46 : 00;
 C47 : 00;
 C48 : 00;
 C49 : 00;
 C4A : 00;
 C4B : 00;
 C4C : 00;
 C4D : 00;
 C4E : 00;
 C4F : 00;
 C50 : 00;
 C51 : 00;
 C52 : 00;
 C53 : 00;
 C54 : 00;
 C55 : 00;
 C56 : 00;
 C57 : 00;
 C58 : 00;
 C59 : 00;
 C5A : 00;
 C5B : 00;
 C5C : 00;
 C5D : 00;
 C5E : 00;
 C5F : 00;
 C60 : 00;
 C61 : 00;
 C62 : 00;
 C63 : 00;
 C64 : 00;
 C65 : 00;
 C66 : 00;
 C67 : 00;
 C68 : 00;
 C69 : 00;
 C6A : 00;
 C6B : 00;
 C6C : 00;
 C6D : 00;
 C6E : 00;
 C6F : 00;
 C70 : 00;
 C71 : 00;
 C72 : 00;
 C73 : 00;
 C74 : 00;
 C75 : 00;
 C76 : 00;
 C77 : 00;
 C78 : 00;
 C79 : 00;
 C7A : 00;
 C7B : 00;
 C7C : 00;
 C7D : 00;
 C7E : 00;
 C7F : 00;
 C80 : 00;
 C81 : 00;
 C82 : 00;
 C83 : 00;
 C84 : 00;
 C85 : 00;
 C86 : 00;
 C87 : 00;
 C88 : 00;
 C89 : 00;
 C8A : 00;
 C8B : 00;
 C8C : 00;
 C8D : 00;
 C8E : 00;
 C8F : 00;
 C90 : 00;
 C91 : 00;
 C92 : 00;
 C93 : 00;
 C94 : 00;
 C95 : 00;
 C96 : 00;
 C97 : 00;
 C98 : 00;
 C99 : 00;
 C9A : 00;
 C9B : 00;
 C9C : 00;
 C9D : 00;
 C9E : 00;
 C9F : 00;
 CA0 : 00;
 CA1 : 00;
 CA2 : 00;
 CA3 : 00;
 CA4 : 00;
 CA5 : 00;
 CA6 : 00;
 CA7 : 00;
 CA8 : 00;
 CA9 : 00;
 CAA : 00;
 CAB : 00;
 CAC : 00;
 CAD : 00;
 CAE : 00;
 CAF : 00;
 CB0 : 00;
 CB1 : 00;
 CB2 : 00;
 CB3 : 00;
 CB4 : 00;
 CB5 : 00;
 CB6 : 00;
 CB7 : 00;
 CB8 : 00;
 CB9 : 00;
 CBA : 00;
 CBB : 00;
 CBC : 00;
 CBD : 00;
 CBE : 00;
 CBF : 00;
 CC0 : 00;
 CC1 : 00;
 CC2 : 00;
 CC3 : 00;
 CC4 : 00;
 CC5 : 00;
 CC6 : 00;
 CC7 : 00;
 CC8 : 00;
 CC9 : 00;
 CCA : 00;
 CCB : 00;
 CCC : 00;
 CCD : 00;
 CCE : 00;
 CCF : 00;
 CD0 : 00;
 CD1 : 00;
 CD2 : 00;
 CD3 : 00;
 CD4 : 00;
 CD5 : 00;
 CD6 : 00;
 CD7 : 00;
 CD8 : 00;
 CD9 : 00;
 CDA : 00;
 CDB : 00;
 CDC : 00;
 CDD : 00;
 CDE : 00;
 CDF : 00;
 CE0 : 00;
 CE1 : 00;
 CE2 : 00;
 CE3 : 00;
 CE4 : 00;
 CE5 : 00;
 CE6 : 00;
 CE7 : 00;
 CE8 : 00;
 CE9 : 00;
 CEA : 00;
 CEB : 00;
 CEC : 00;
 CED : 00;
 CEE : 00;
 CEF : 00;
 CF0 : 00;
 CF1 : 00;
 CF2 : 00;
 CF3 : 00;
 CF4 : 00;
 CF5 : 00;
 CF6 : 00;
 CF7 : 00;
 CF8 : 00;
 CF9 : 00;
 CFA : 00;
 CFB : 00;
 CFC : 00;
 CFD : 00;
 CFE : 00;
 CFF : 00;
 D00 : 00;
 D01 : 00;
 D02 : 00;
 D03 : 00;
 D04 : 00;
 D05 : 00;
 D06 : 00;
 D07 : 00;
 D08 : 00;
 D09 : 00;
 D0A : 00;
 D0B : 00;
 D0C : 00;
 D0D : 00;
 D0E : 00;
 D0F : 00;
 D10 : 00;
 D11 : 00;
 D12 : 00;
 D13 : 00;
 D14 : 00;
 D15 : 00;
 D16 : 00;
 D17 : 00;
 D18 : 00;
 D19 : 00;
 D1A : 00;
 D1B : 00;
 D1C : 00;
 D1D : 00;
 D1E : 00;
 D1F : 00;
 D20 : 00;
 D21 : 00;
 D22 : 00;
 D23 : 00;
 D24 : 00;
 D25 : 00;
 D26 : 00;
 D27 : 00;
 D28 : 00;
 D29 : 00;
 D2A : 00;
 D2B : 00;
 D2C : 00;
 D2D : 00;
 D2E : 00;
 D2F : 00;
 D30 : 00;
 D31 : 00;
 D32 : 00;
 D33 : 00;
 D34 : 00;
 D35 : 00;
 D36 : 00;
 D37 : 00;
 D38 : 00;
 D39 : 00;
 D3A : 00;
 D3B : 00;
 D3C : 00;
 D3D : 00;
 D3E : 00;
 D3F : 00;
 D40 : 00;
 D41 : 00;
 D42 : 00;
 D43 : 00;
 D44 : 00;
 D45 : 00;
 D46 : 00;
 D47 : 00;
 D48 : 00;
 D49 : 00;
 D4A : 00;
 D4B : 00;
 D4C : 00;
 D4D : 00;
 D4E : 00;
 D4F : 00;
 D50 : 00;
 D51 : 00;
 D52 : 00;
 D53 : 00;
 D54 : 00;
 D55 : 00;
 D56 : 00;
 D57 : 00;
 D58 : 00;
 D59 : 00;
 D5A : 00;
 D5B : 00;
 D5C : 00;
 D5D : 00;
 D5E : 00;
 D5F : 00;
 D60 : 00;
 D61 : 00;
 D62 : 00;
 D63 : 00;
 D64 : 00;
 D65 : 00;
 D66 : 00;
 D67 : 00;
 D68 : 00;
 D69 : 00;
 D6A : 00;
 D6B : 00;
 D6C : 00;
 D6D : 00;
 D6E : 00;
 D6F : 00;
 D70 : 00;
 D71 : 00;
 D72 : 00;
 D73 : 00;
 D74 : 00;
 D75 : 00;
 D76 : 00;
 D77 : 00;
 D78 : 00;
 D79 : 00;
 D7A : 00;
 D7B : 00;
 D7C : 00;
 D7D : 00;
 D7E : 00;
 D7F : 00;
 D80 : 00;
 D81 : 00;
 D82 : 00;
 D83 : 00;
 D84 : 00;
 D85 : 00;
 D86 : 00;
 D87 : 00;
 D88 : 00;
 D89 : 00;
 D8A : 00;
 D8B : 00;
 D8C : 00;
 D8D : 00;
 D8E : 00;
 D8F : 00;
 D90 : 00;
 D91 : 00;
 D92 : 00;
 D93 : 00;
 D94 : 00;
 D95 : 00;
 D96 : 00;
 D97 : 00;
 D98 : 00;
 D99 : 00;
 D9A : 00;
 D9B : 00;
 D9C : 00;
 D9D : 00;
 D9E : 00;
 D9F : 00;
 DA0 : 00;
 DA1 : 00;
 DA2 : 00;
 DA3 : 00;
 DA4 : 00;
 DA5 : 00;
 DA6 : 00;
 DA7 : 00;
 DA8 : 00;
 DA9 : 00;
 DAA : 00;
 DAB : 00;
 DAC : 00;
 DAD : 00;
 DAE : 00;
 DAF : 00;
 DB0 : 00;
 DB1 : 00;
 DB2 : 00;
 DB3 : 00;
 DB4 : 00;
 DB5 : 00;
 DB6 : 00;
 DB7 : 00;
 DB8 : 00;
 DB9 : 00;
 DBA : 00;
 DBB : 00;
 DBC : 00;
 DBD : 00;
 DBE : 00;
 DBF : 00;
 DC0 : 00;
 DC1 : 00;
 DC2 : 00;
 DC3 : 00;
 DC4 : 00;
 DC5 : 00;
 DC6 : 00;
 DC7 : 00;
 DC8 : 00;
 DC9 : 00;
 DCA : 00;
 DCB : 00;
 DCC : 00;
 DCD : 00;
 DCE : 00;
 DCF : 00;
 DD0 : 00;
 DD1 : 00;
 DD2 : 00;
 DD3 : 00;
 DD4 : 00;
 DD5 : 00;
 DD6 : 00;
 DD7 : 00;
 DD8 : 00;
 DD9 : 00;
 DDA : 00;
 DDB : 00;
 DDC : 00;
 DDD : 00;
 DDE : 00;
 DDF : 00;
 DE0 : 00;
 DE1 : 00;
 DE2 : 00;
 DE3 : 00;
 DE4 : 00;
 DE5 : 00;
 DE6 : 00;
 DE7 : 00;
 DE8 : 00;
 DE9 : 00;
 DEA : 00;
 DEB : 00;
 DEC : 00;
 DED : 00;
 DEE : 00;
 DEF : 00;
 DF0 : 00;
 DF1 : 00;
 DF2 : 00;
 DF3 : 00;
 DF4 : 00;
 DF5 : 00;
 DF6 : 00;
 DF7 : 00;
 DF8 : 00;
 DF9 : 00;
 DFA : 00;
 DFB : 00;
 DFC : 00;
 DFD : 00;
 DFE : 00;
 DFF : 00;
 E00 : 00;
 E01 : 00;
 E02 : 00;
 E03 : 00;
 E04 : 00;
 E05 : 00;
 E06 : 00;
 E07 : 00;
 E08 : 00;
 E09 : 00;
 E0A : 00;
 E0B : 00;
 E0C : 00;
 E0D : 00;
 E0E : 00;
 E0F : 00;
 E10 : 00;
 E11 : 00;
 E12 : 00;
 E13 : 00;
 E14 : 00;
 E15 : 00;
 E16 : 00;
 E17 : 00;
 E18 : 00;
 E19 : 00;
 E1A : 00;
 E1B : 00;
 E1C : 00;
 E1D : 00;
 E1E : 00;
 E1F : 00;
 E20 : 00;
 E21 : 00;
 E22 : 00;
 E23 : 00;
 E24 : 00;
 E25 : 00;
 E26 : 00;
 E27 : 00;
 E28 : 00;
 E29 : 00;
 E2A : 00;
 E2B : 00;
 E2C : 00;
 E2D : 00;
 E2E : 00;
 E2F : 00;
 E30 : 00;
 E31 : 00;
 E32 : 00;
 E33 : 00;
 E34 : 00;
 E35 : 00;
 E36 : 00;
 E37 : 00;
 E38 : 00;
 E39 : 00;
 E3A : 00;
 E3B : 00;
 E3C : 00;
 E3D : 00;
 E3E : 00;
 E3F : 00;
 E40 : 00;
 E41 : 00;
 E42 : 00;
 E43 : 00;
 E44 : 00;
 E45 : 00;
 E46 : 00;
 E47 : 00;
 E48 : 00;
 E49 : 00;
 E4A : 00;
 E4B : 00;
 E4C : 00;
 E4D : 00;
 E4E : 00;
 E4F : 00;
 E50 : 00;
 E51 : 00;
 E52 : 00;
 E53 : 00;
 E54 : 00;
 E55 : 00;
 E56 : 00;
 E57 : 00;
 E58 : 00;
 E59 : 00;
 E5A : 00;
 E5B : 00;
 E5C : 00;
 E5D : 00;
 E5E : 00;
 E5F : 00;
 E60 : 00;
 E61 : 00;
 E62 : 00;
 E63 : 00;
 E64 : 00;
 E65 : 00;
 E66 : 00;
 E67 : 00;
 E68 : 00;
 E69 : 00;
 E6A : 00;
 E6B : 00;
 E6C : 00;
 E6D : 00;
 E6E : 00;
 E6F : 00;
 E70 : 00;
 E71 : 00;
 E72 : 00;
 E73 : 00;
 E74 : 00;
 E75 : 00;
 E76 : 00;
 E77 : 00;
 E78 : 00;
 E79 : 00;
 E7A : 00;
 E7B : 00;
 E7C : 00;
 E7D : 00;
 E7E : 00;
 E7F : 00;
 E80 : 00;
 E81 : 00;
 E82 : 00;
 E83 : 00;
 E84 : 00;
 E85 : 00;
 E86 : 00;
 E87 : 00;
 E88 : 00;
 E89 : 00;
 E8A : 00;
 E8B : 00;
 E8C : 00;
 E8D : 00;
 E8E : 00;
 E8F : 00;
 E90 : 00;
 E91 : 00;
 E92 : 00;
 E93 : 00;
 E94 : 00;
 E95 : 00;
 E96 : 00;
 E97 : 00;
 E98 : 00;
 E99 : 00;
 E9A : 00;
 E9B : 00;
 E9C : 00;
 E9D : 00;
 E9E : 00;
 E9F : 00;
 EA0 : 00;
 EA1 : 00;
 EA2 : 00;
 EA3 : 00;
 EA4 : 00;
 EA5 : 00;
 EA6 : 00;
 EA7 : 00;
 EA8 : 00;
 EA9 : 00;
 EAA : 00;
 EAB : 00;
 EAC : 00;
 EAD : 00;
 EAE : 00;
 EAF : 00;
 EB0 : 00;
 EB1 : 00;
 EB2 : 00;
 EB3 : 00;
 EB4 : 00;
 EB5 : 00;
 EB6 : 00;
 EB7 : 00;
 EB8 : 00;
 EB9 : 00;
 EBA : 00;
 EBB : 00;
 EBC : 00;
 EBD : 00;
 EBE : 00;
 EBF : 00;
 EC0 : 00;
 EC1 : 00;
 EC2 : 00;
 EC3 : 00;
 EC4 : 00;
 EC5 : 00;
 EC6 : 00;
 EC7 : 00;
 EC8 : 00;
 EC9 : 00;
 ECA : 00;
 ECB : 00;
 ECC : 00;
 ECD : 00;
 ECE : 00;
 ECF : 00;
 ED0 : 00;
 ED1 : 00;
 ED2 : 00;
 ED3 : 00;
 ED4 : 00;
 ED5 : 00;
 ED6 : 00;
 ED7 : 00;
 ED8 : 00;
 ED9 : 00;
 EDA : 00;
 EDB : 00;
 EDC : 00;
 EDD : 00;
 EDE : 00;
 EDF : 00;
 EE0 : 00;
 EE1 : 00;
 EE2 : 00;
 EE3 : 00;
 EE4 : 00;
 EE5 : 00;
 EE6 : 00;
 EE7 : 00;
 EE8 : 00;
 EE9 : 00;
 EEA : 00;
 EEB : 00;
 EEC : 00;
 EED : 00;
 EEE : 00;
 EEF : 00;
 EF0 : 00;
 EF1 : 00;
 EF2 : 00;
 EF3 : 00;
 EF4 : 00;
 EF5 : 00;
 EF6 : 00;
 EF7 : 00;
 EF8 : 00;
 EF9 : 00;
 EFA : 00;
 EFB : 00;
 EFC : 00;
 EFD : 00;
 EFE : 00;
 EFF : 00;
 F00 : 00;
 F01 : 00;
 F02 : 00;
 F03 : 00;
 F04 : 00;
 F05 : 00;
 F06 : 00;
 F07 : 00;
 F08 : 00;
 F09 : 00;
 F0A : 00;
 F0B : 00;
 F0C : 00;
 F0D : 00;
 F0E : 00;
 F0F : 00;
 F10 : 00;
 F11 : 00;
 F12 : 00;
 F13 : 00;
 F14 : 00;
 F15 : 00;
 F16 : 00;
 F17 : 00;
 F18 : 00;
 F19 : 00;
 F1A : 00;
 F1B : 00;
 F1C : 00;
 F1D : 00;
 F1E : 00;
 F1F : 00;
 F20 : 00;
 F21 : 00;
 F22 : 00;
 F23 : 00;
 F24 : 00;
 F25 : 00;
 F26 : 00;
 F27 : 00;
 F28 : 00;
 F29 : 00;
 F2A : 00;
 F2B : 00;
 F2C : 00;
 F2D : 00;
 F2E : 00;
 F2F : 00;
 F30 : 00;
 F31 : 00;
 F32 : 00;
 F33 : 00;
 F34 : 00;
 F35 : 00;
 F36 : 00;
 F37 : 00;
 F38 : 00;
 F39 : 00;
 F3A : 00;
 F3B : 00;
 F3C : 00;
 F3D : 00;
 F3E : 00;
 F3F : 00;
 F40 : 00;
 F41 : 00;
 F42 : 00;
 F43 : 00;
 F44 : 00;
 F45 : 00;
 F46 : 00;
 F47 : 00;
 F48 : 00;
 F49 : 00;
 F4A : 00;
 F4B : 00;
 F4C : 00;
 F4D : 00;
 F4E : 00;
 F4F : 00;
 F50 : 00;
 F51 : 00;
 F52 : 00;
 F53 : 00;
 F54 : 00;
 F55 : 00;
 F56 : 00;
 F57 : 00;
 F58 : 00;
 F59 : 00;
 F5A : 00;
 F5B : 00;
 F5C : 00;
 F5D : 00;
 F5E : 00;
 F5F : 00;
 F60 : 00;
 F61 : 00;
 F62 : 00;
 F63 : 00;
 F64 : 00;
 F65 : 00;
 F66 : 00;
 F67 : 00;
 F68 : 00;
 F69 : 00;
 F6A : 00;
 F6B : 00;
 F6C : 00;
 F6D : 00;
 F6E : 00;
 F6F : 00;
 F70 : 00;
 F71 : 00;
 F72 : 00;
 F73 : 00;
 F74 : 00;
 F75 : 00;
 F76 : 00;
 F77 : 00;
 F78 : 00;
 F79 : 00;
 F7A : 00;
 F7B : 00;
 F7C : 00;
 F7D : 00;
 F7E : 00;
 F7F : 00;
 F80 : 00;
 F81 : 00;
 F82 : 00;
 F83 : 00;
 F84 : 00;
 F85 : 00;
 F86 : 00;
 F87 : 00;
 F88 : 00;
 F89 : 00;
 F8A : 00;
 F8B : 00;
 F8C : 00;
 F8D : 00;
 F8E : 00;
 F8F : 00;
 F90 : 00;
 F91 : 00;
 F92 : 00;
 F93 : 00;
 F94 : 00;
 F95 : 00;
 F96 : 00;
 F97 : 00;
 F98 : 00;
 F99 : 00;
 F9A : 00;
 F9B : 00;
 F9C : 00;
 F9D : 00;
 F9E : 00;
 F9F : 00;
 FA0 : 00;
 FA1 : 00;
 FA2 : 00;
 FA3 : 00;
 FA4 : 00;
 FA5 : 00;
 FA6 : 00;
 FA7 : 00;
 FA8 : 00;
 FA9 : 00;
 FAA : 00;
 FAB : 00;
 FAC : 00;
 FAD : 00;
 FAE : 00;
 FAF : 00;
 FB0 : 00;
 FB1 : 00;
 FB2 : 00;
 FB3 : 00;
 FB4 : 00;
 FB5 : 00;
 FB6 : 00;
 FB7 : 00;
 FB8 : 00;
 FB9 : 00;
 FBA : 00;
 FBB : 00;
 FBC : 00;
 FBD : 00;
 FBE : 00;
 FBF : 00;
 FC0 : 00;
 FC1 : 00;
 FC2 : 00;
 FC3 : 00;
 FC4 : 00;
 FC5 : 00;
 FC6 : 00;
 FC7 : 00;
 FC8 : 00;
 FC9 : 00;
 FCA : 00;
 FCB : 00;
 FCC : 00;
 FCD : 00;
 FCE : 00;
 FCF : 00;
 FD0 : 00;
 FD1 : 00;
 FD2 : 00;
 FD3 : 00;
 FD4 : 00;
 FD5 : 00;
 FD6 : 00;
 FD7 : 00;
 FD8 : 00;
 FD9 : 00;
 FDA : 00;
 FDB : 00;
 FDC : 00;
 FDD : 00;
 FDE : 00;
 FDF : 00;
 FE0 : 00;
 FE1 : 00;
 FE2 : 00;
 FE3 : 00;
 FE4 : 00;
 FE5 : 00;
 FE6 : 00;
 FE7 : 00;
 FE8 : 00;
 FE9 : 00;
 FEA : 00;
 FEB : 00;
 FEC : 00;
 FED : 00;
 FEE : 00;
 FEF : 00;
 FF0 : 00;
 FF1 : 00;
 FF2 : 00;
 FF3 : 00;
 FF4 : 00;
 FF5 : 00;
 FF6 : 00;
 FF7 : 00;
 FF8 : 00;
 FF9 : 00;
 FFA : 00;
 FFB : 00;
 FFC : 00;
 FFD : 00;
 FFE : 00;
 FFF : 00;
1000 : 00;
1001 : 00;
1002 : 00;
1003 : 00;
1004 : 00;
1005 : 00;
1006 : 00;
1007 : 00;
1008 : 00;
1009 : 00;
100A : 00;
100B : 00;
100C : 00;
100D : 00;
100E : 00;
100F : 00;
1010 : 00;
1011 : 00;
1012 : 00;
1013 : 00;
1014 : 00;
1015 : 00;
1016 : 00;
1017 : 00;
1018 : 00;
1019 : 00;
101A : 00;
101B : 00;
101C : 00;
101D : 00;
101E : 00;
101F : 00;
1020 : 00;
1021 : 00;
1022 : 00;
1023 : 00;
1024 : 00;
1025 : 00;
1026 : 00;
1027 : 00;
1028 : 00;
1029 : 00;
102A : 00;
102B : 00;
102C : 00;
102D : 00;
102E : 00;
102F : 00;
1030 : 00;
1031 : 00;
1032 : 00;
1033 : 00;
1034 : 00;
1035 : 00;
1036 : 00;
1037 : 00;
1038 : 00;
1039 : 00;
103A : 00;
103B : 00;
103C : 00;
103D : 00;
103E : 00;
103F : 00;
1040 : 00;
1041 : 00;
1042 : 00;
1043 : 00;
1044 : 00;
1045 : 00;
1046 : 00;
1047 : 00;
1048 : 00;
1049 : 00;
104A : 00;
104B : 00;
104C : 00;
104D : 00;
104E : 00;
104F : 00;
1050 : 00;
1051 : 00;
1052 : 00;
1053 : 00;
1054 : 00;
1055 : 00;
1056 : 00;
1057 : 00;
1058 : 00;
1059 : 00;
105A : 00;
105B : 00;
105C : 00;
105D : 00;
105E : 00;
105F : 00;
1060 : 00;
1061 : 00;
1062 : 00;
1063 : 00;
1064 : 00;
1065 : 00;
1066 : 00;
1067 : 00;
1068 : 00;
1069 : 00;
106A : 00;
106B : 00;
106C : 00;
106D : 00;
106E : 00;
106F : 00;
1070 : 00;
1071 : 00;
1072 : 00;
1073 : 00;
1074 : 00;
1075 : 00;
1076 : 00;
1077 : 00;
1078 : 00;
1079 : 00;
107A : 00;
107B : 00;
107C : 00;
107D : 00;
107E : 00;
107F : 00;
1080 : 00;
1081 : 00;
1082 : 00;
1083 : 00;
1084 : 00;
1085 : 00;
1086 : 00;
1087 : 00;
1088 : 00;
1089 : 00;
108A : 00;
108B : 00;
108C : 00;
108D : 00;
108E : 00;
108F : 00;
1090 : 00;
1091 : 00;
1092 : 00;
1093 : 00;
1094 : 00;
1095 : 00;
1096 : 00;
1097 : 00;
1098 : 00;
1099 : 00;
109A : 00;
109B : 00;
109C : 00;
109D : 00;
109E : 00;
109F : 00;
10A0 : 00;
10A1 : 00;
10A2 : 00;
10A3 : 00;
10A4 : 00;
10A5 : 00;
10A6 : 00;
10A7 : 00;
10A8 : 00;
10A9 : 00;
10AA : 00;
10AB : 00;
10AC : 00;
10AD : 00;
10AE : 00;
10AF : 00;
10B0 : 00;
10B1 : 00;
10B2 : 00;
10B3 : 00;
10B4 : 00;
10B5 : 00;
10B6 : 00;
10B7 : 00;
10B8 : 00;
10B9 : 00;
10BA : 00;
10BB : 00;
10BC : 00;
10BD : 00;
10BE : 00;
10BF : 00;
10C0 : 00;
10C1 : 00;
10C2 : 00;
10C3 : 00;
10C4 : 00;
10C5 : 00;
10C6 : 00;
10C7 : 00;
10C8 : 00;
10C9 : 00;
10CA : 00;
10CB : 00;
10CC : 00;
10CD : 00;
10CE : 00;
10CF : 00;
10D0 : 00;
10D1 : 00;
10D2 : 00;
10D3 : 00;
10D4 : 00;
10D5 : 00;
10D6 : 00;
10D7 : 00;
10D8 : 00;
10D9 : 00;
10DA : 00;
10DB : 00;
10DC : 00;
10DD : 00;
10DE : 00;
10DF : 00;
10E0 : 00;
10E1 : 00;
10E2 : 00;
10E3 : 00;
10E4 : 00;
10E5 : 00;
10E6 : 00;
10E7 : 00;
10E8 : 00;
10E9 : 00;
10EA : 00;
10EB : 00;
10EC : 00;
10ED : 00;
10EE : 00;
10EF : 00;
10F0 : 00;
10F1 : 00;
10F2 : 00;
10F3 : 00;
10F4 : 00;
10F5 : 00;
10F6 : 00;
10F7 : 00;
10F8 : 00;
10F9 : 00;
10FA : 00;
10FB : 00;
10FC : 00;
10FD : 00;
10FE : 00;
10FF : 00;
1100 : 00;
1101 : 00;
1102 : 00;
1103 : 00;
1104 : 00;
1105 : 00;
1106 : 00;
1107 : 00;
1108 : 00;
1109 : 00;
110A : 00;
110B : 00;
110C : 00;
110D : 00;
110E : 00;
110F : 00;
1110 : 00;
1111 : 00;
1112 : 00;
1113 : 00;
1114 : 00;
1115 : 00;
1116 : 00;
1117 : 00;
1118 : 00;
1119 : 00;
111A : 00;
111B : 00;
111C : 00;
111D : 00;
111E : 00;
111F : 00;
1120 : 00;
1121 : 00;
1122 : 00;
1123 : 00;
1124 : 00;
1125 : 00;
1126 : 00;
1127 : 00;
1128 : 00;
1129 : 00;
112A : 00;
112B : 00;
112C : 00;
112D : 00;
112E : 00;
112F : 00;
1130 : 00;
1131 : 00;
1132 : 00;
1133 : 00;
1134 : 00;
1135 : 00;
1136 : 00;
1137 : 00;
1138 : 00;
1139 : 00;
113A : 00;
113B : 00;
113C : 00;
113D : 00;
113E : 00;
113F : 00;
1140 : 00;
1141 : 00;
1142 : 00;
1143 : 00;
1144 : 00;
1145 : 00;
1146 : 00;
1147 : 00;
1148 : 00;
1149 : 00;
114A : 00;
114B : 00;
114C : 00;
114D : 00;
114E : 00;
114F : 00;
1150 : 00;
1151 : 00;
1152 : 00;
1153 : 00;
1154 : 00;
1155 : 00;
1156 : 00;
1157 : 00;
1158 : 00;
1159 : 00;
115A : 00;
115B : 00;
115C : 00;
115D : 00;
115E : 00;
115F : 00;
1160 : 00;
1161 : 00;
1162 : 00;
1163 : 00;
1164 : 00;
1165 : 00;
1166 : 00;
1167 : 00;
1168 : 00;
1169 : 00;
116A : 00;
116B : 00;
116C : 00;
116D : 00;
116E : 00;
116F : 00;
1170 : 00;
1171 : 00;
1172 : 00;
1173 : 00;
1174 : 00;
1175 : 00;
1176 : 00;
1177 : 00;
1178 : 00;
1179 : 00;
117A : 00;
117B : 00;
117C : 00;
117D : 00;
117E : 00;
117F : 00;
1180 : 00;
1181 : 00;
1182 : 00;
1183 : 00;
1184 : 00;
1185 : 00;
1186 : 00;
1187 : 00;
1188 : 00;
1189 : 00;
118A : 00;
118B : 00;
118C : 00;
118D : 00;
118E : 00;
118F : 00;
1190 : 00;
1191 : 00;
1192 : 00;
1193 : 00;
1194 : 00;
1195 : 00;
1196 : 00;
1197 : 00;
1198 : 00;
1199 : 00;
119A : 00;
119B : 00;
119C : 00;
119D : 00;
119E : 00;
119F : 00;
11A0 : 00;
11A1 : 00;
11A2 : 00;
11A3 : 00;
11A4 : 00;
11A5 : 00;
11A6 : 00;
11A7 : 00;
11A8 : 00;
11A9 : 00;
11AA : 00;
11AB : 00;
11AC : 00;
11AD : 00;
11AE : 00;
11AF : 00;
11B0 : 00;
11B1 : 00;
11B2 : 00;
11B3 : 00;
11B4 : 00;
11B5 : 00;
11B6 : 00;
11B7 : 00;
11B8 : 00;
11B9 : 00;
11BA : 00;
11BB : 00;
11BC : 00;
11BD : 00;
11BE : 00;
11BF : 00;
11C0 : 00;
11C1 : 00;
11C2 : 00;
11C3 : 00;
11C4 : 00;
11C5 : 00;
11C6 : 00;
11C7 : 00;
11C8 : 00;
11C9 : 00;
11CA : 00;
11CB : 00;
11CC : 00;
11CD : 00;
11CE : 00;
11CF : 00;
11D0 : 00;
11D1 : 00;
11D2 : 00;
11D3 : 00;
11D4 : 00;
11D5 : 00;
11D6 : 00;
11D7 : 00;
11D8 : 00;
11D9 : 00;
11DA : 00;
11DB : 00;
11DC : 00;
11DD : 00;
11DE : 00;
11DF : 00;
11E0 : 00;
11E1 : 00;
11E2 : 00;
11E3 : 00;
11E4 : 00;
11E5 : 00;
11E6 : 00;
11E7 : 00;
11E8 : 00;
11E9 : 00;
11EA : 00;
11EB : 00;
11EC : 00;
11ED : 00;
11EE : 00;
11EF : 00;
11F0 : 00;
11F1 : 00;
11F2 : 00;
11F3 : 00;
11F4 : 00;
11F5 : 00;
11F6 : 00;
11F7 : 00;
11F8 : 00;
11F9 : 00;
11FA : 00;
11FB : 00;
11FC : 00;
11FD : 00;
11FE : 00;
11FF : 00;
1200 : 00;
1201 : 00;
1202 : 00;
1203 : 00;
1204 : 00;
1205 : 00;
1206 : 00;
1207 : 00;
1208 : 00;
1209 : 00;
120A : 00;
120B : 00;
120C : 00;
120D : 00;
120E : 00;
120F : 00;
1210 : 00;
1211 : 00;
1212 : 00;
1213 : 00;
1214 : 00;
1215 : 00;
1216 : 00;
1217 : 00;
1218 : 00;
1219 : 00;
121A : 00;
121B : 00;
121C : 00;
121D : 00;
121E : 00;
121F : 00;
1220 : 00;
1221 : 00;
1222 : 00;
1223 : 00;
1224 : 00;
1225 : 00;
1226 : 00;
1227 : 00;
1228 : 00;
1229 : 00;
122A : 00;
122B : 00;
122C : 00;
122D : 00;
122E : 00;
122F : 00;
1230 : 00;
1231 : 00;
1232 : 00;
1233 : 00;
1234 : 00;
1235 : 00;
1236 : 00;
1237 : 00;
1238 : 00;
1239 : 00;
123A : 00;
123B : 00;
123C : 00;
123D : 00;
123E : 00;
123F : 00;
1240 : 00;
1241 : 00;
1242 : 00;
1243 : 00;
1244 : 00;
1245 : 00;
1246 : 00;
1247 : 00;
1248 : 00;
1249 : 00;
124A : 00;
124B : 00;
124C : 00;
124D : 00;
124E : 00;
124F : 00;
1250 : 00;
1251 : 00;
1252 : 00;
1253 : 00;
1254 : 00;
1255 : 00;
1256 : 00;
1257 : 00;
1258 : 00;
1259 : 00;
125A : 00;
125B : 00;
125C : 00;
125D : 00;
125E : 00;
125F : 00;
1260 : 00;
1261 : 00;
1262 : 00;
1263 : 00;
1264 : 00;
1265 : 00;
1266 : 00;
1267 : 00;
1268 : 00;
1269 : 00;
126A : 00;
126B : 00;
126C : 00;
126D : 00;
126E : 00;
126F : 00;
1270 : 00;
1271 : 00;
1272 : 00;
1273 : 00;
1274 : 00;
1275 : 00;
1276 : 00;
1277 : 00;
1278 : 00;
1279 : 00;
127A : 00;
127B : 00;
127C : 00;
127D : 00;
127E : 00;
127F : 00;
1280 : 00;
1281 : 00;
1282 : 00;
1283 : 00;
1284 : 00;
1285 : 00;
1286 : 00;
1287 : 00;
1288 : 00;
1289 : 00;
128A : 00;
128B : 00;
128C : 00;
128D : 00;
128E : 00;
128F : 00;
1290 : 00;
1291 : 00;
1292 : 00;
1293 : 00;
1294 : 00;
1295 : 00;
1296 : 00;
1297 : 00;
1298 : 00;
1299 : 00;
129A : 00;
129B : 00;
129C : 00;
129D : 00;
129E : 00;
129F : 00;
12A0 : 00;
12A1 : 00;
12A2 : 00;
12A3 : 00;
12A4 : 00;
12A5 : 00;
12A6 : 00;
12A7 : 00;
12A8 : 00;
12A9 : 00;
12AA : 00;
12AB : 00;
12AC : 00;
12AD : 00;
12AE : 00;
12AF : 00;
12B0 : 00;
12B1 : 00;
12B2 : 00;
12B3 : 00;
12B4 : 00;
12B5 : 00;
12B6 : 00;
12B7 : 00;
12B8 : 00;
12B9 : 00;
12BA : 00;
12BB : 00;
12BC : 00;
12BD : 00;
12BE : 00;
12BF : 00;
12C0 : 00;
12C1 : 00;
12C2 : 00;
12C3 : 00;
12C4 : 00;
12C5 : 00;
12C6 : 00;
12C7 : 00;
12C8 : 00;
12C9 : 00;
12CA : 00;
12CB : 00;
12CC : 00;
12CD : 00;
12CE : 00;
12CF : 00;
12D0 : 00;
12D1 : 00;
12D2 : 00;
12D3 : 00;
12D4 : 00;
12D5 : 00;
12D6 : 00;
12D7 : 00;
12D8 : 00;
12D9 : 00;
12DA : 00;
12DB : 00;
12DC : 00;
12DD : 00;
12DE : 00;
12DF : 00;
12E0 : 00;
12E1 : 00;
12E2 : 00;
12E3 : 00;
12E4 : 00;
12E5 : 00;
12E6 : 00;
12E7 : 00;
12E8 : 00;
12E9 : 00;
12EA : 00;
12EB : 00;
12EC : 00;
12ED : 00;
12EE : 00;
12EF : 00;
12F0 : 00;
12F1 : 00;
12F2 : 00;
12F3 : 00;
12F4 : 00;
12F5 : 00;
12F6 : 00;
12F7 : 00;
12F8 : 00;
12F9 : 00;
12FA : 00;
12FB : 00;
12FC : 00;
12FD : 00;
12FE : 00;
12FF : 00;
1300 : 00;
1301 : 00;
1302 : 00;
1303 : 00;
1304 : 00;
1305 : 00;
1306 : 00;
1307 : 00;
1308 : 00;
1309 : 00;
130A : 00;
130B : 00;
130C : 00;
130D : 00;
130E : 00;
130F : 00;
1310 : 00;
1311 : 00;
1312 : 00;
1313 : 00;
1314 : 00;
1315 : 00;
1316 : 00;
1317 : 00;
1318 : 00;
1319 : 00;
131A : 00;
131B : 00;
131C : 00;
131D : 00;
131E : 00;
131F : 00;
1320 : 00;
1321 : 00;
1322 : 00;
1323 : 00;
1324 : 00;
1325 : 00;
1326 : 00;
1327 : 00;
1328 : 00;
1329 : 00;
132A : 00;
132B : 00;
132C : 00;
132D : 00;
132E : 00;
132F : 00;
1330 : 00;
1331 : 00;
1332 : 00;
1333 : 00;
1334 : 00;
1335 : 00;
1336 : 00;
1337 : 00;
1338 : 00;
1339 : 00;
133A : 00;
133B : 00;
133C : 00;
133D : 00;
133E : 00;
133F : 00;
1340 : 00;
1341 : 00;
1342 : 00;
1343 : 00;
1344 : 00;
1345 : 00;
1346 : 00;
1347 : 00;
1348 : 00;
1349 : 00;
134A : 00;
134B : 00;
134C : 00;
134D : 00;
134E : 00;
134F : 00;
1350 : 00;
1351 : 00;
1352 : 00;
1353 : 00;
1354 : 00;
1355 : 00;
1356 : 00;
1357 : 00;
1358 : 00;
1359 : 00;
135A : 00;
135B : 00;
135C : 00;
135D : 00;
135E : 00;
135F : 00;
1360 : 00;
1361 : 00;
1362 : 00;
1363 : 00;
1364 : 00;
1365 : 00;
1366 : 00;
1367 : 00;
1368 : 00;
1369 : 00;
136A : 00;
136B : 00;
136C : 00;
136D : 00;
136E : 00;
136F : 00;
1370 : 00;
1371 : 00;
1372 : 00;
1373 : 00;
1374 : 00;
1375 : 00;
1376 : 00;
1377 : 00;
1378 : 00;
1379 : 00;
137A : 00;
137B : 00;
137C : 00;
137D : 00;
137E : 00;
137F : 00;
1380 : 00;
1381 : 00;
1382 : 00;
1383 : 00;
1384 : 00;
1385 : 00;
1386 : 00;
1387 : 00;
1388 : 00;
1389 : 00;
138A : 00;
138B : 00;
138C : 00;
138D : 00;
138E : 00;
138F : 00;
1390 : 00;
1391 : 00;
1392 : 00;
1393 : 00;
1394 : 00;
1395 : 00;
1396 : 00;
1397 : 00;
1398 : 00;
1399 : 00;
139A : 00;
139B : 00;
139C : 00;
139D : 00;
139E : 00;
139F : 00;
13A0 : 00;
13A1 : 00;
13A2 : 00;
13A3 : 00;
13A4 : 00;
13A5 : 00;
13A6 : 00;
13A7 : 00;
13A8 : 00;
13A9 : 00;
13AA : 00;
13AB : 00;
13AC : 00;
13AD : 00;
13AE : 00;
13AF : 00;
13B0 : 00;
13B1 : 00;
13B2 : 00;
13B3 : 00;
13B4 : 00;
13B5 : 00;
13B6 : 00;
13B7 : 00;
13B8 : 00;
13B9 : 00;
13BA : 00;
13BB : 00;
13BC : 00;
13BD : 00;
13BE : 00;
13BF : 00;
13C0 : 00;
13C1 : 00;
13C2 : 00;
13C3 : 00;
13C4 : 00;
13C5 : 00;
13C6 : 00;
13C7 : 00;
13C8 : 00;
13C9 : 00;
13CA : 00;
13CB : 00;
13CC : 00;
13CD : 00;
13CE : 00;
13CF : 00;
13D0 : 00;
13D1 : 00;
13D2 : 00;
13D3 : 00;
13D4 : 00;
13D5 : 00;
13D6 : 00;
13D7 : 00;
13D8 : 00;
13D9 : 00;
13DA : 00;
13DB : 00;
13DC : 00;
13DD : 00;
13DE : 00;
13DF : 00;
13E0 : 00;
13E1 : 00;
13E2 : 00;
13E3 : 00;
13E4 : 00;
13E5 : 00;
13E6 : 00;
13E7 : 00;
13E8 : 00;
13E9 : 00;
13EA : 00;
13EB : 00;
13EC : 00;
13ED : 00;
13EE : 00;
13EF : 00;
13F0 : 00;
13F1 : 00;
13F2 : 00;
13F3 : 00;
13F4 : 00;
13F5 : 00;
13F6 : 00;
13F7 : 00;
13F8 : 00;
13F9 : 00;
13FA : 00;
13FB : 00;
13FC : 00;
13FD : 00;
13FE : 00;
13FF : 00;
1400 : 00;
1401 : 00;
1402 : 00;
1403 : 00;
1404 : 00;
1405 : 00;
1406 : 00;
1407 : 00;
1408 : 00;
1409 : 00;
140A : 00;
140B : 00;
140C : 00;
140D : 00;
140E : 00;
140F : 00;
1410 : 00;
1411 : 00;
1412 : 00;
1413 : 00;
1414 : 00;
1415 : 00;
1416 : 00;
1417 : 00;
1418 : 00;
1419 : 00;
141A : 00;
141B : 00;
141C : 00;
141D : 00;
141E : 00;
141F : 00;
1420 : 00;
1421 : 00;
1422 : 00;
1423 : 00;
1424 : 00;
1425 : 00;
1426 : 00;
1427 : 00;
1428 : 00;
1429 : 00;
142A : 00;
142B : 00;
142C : 00;
142D : 00;
142E : 00;
142F : 00;
1430 : 00;
1431 : 00;
1432 : 00;
1433 : 00;
1434 : 00;
1435 : 00;
1436 : 00;
1437 : 00;
1438 : 00;
1439 : 00;
143A : 00;
143B : 00;
143C : 00;
143D : 00;
143E : 00;
143F : 00;
1440 : 00;
1441 : 00;
1442 : 00;
1443 : 00;
1444 : 00;
1445 : 00;
1446 : 00;
1447 : 00;
1448 : 00;
1449 : 00;
144A : 00;
144B : 00;
144C : 00;
144D : 00;
144E : 00;
144F : 00;
1450 : 00;
1451 : 00;
1452 : 00;
1453 : 00;
1454 : 00;
1455 : 00;
1456 : 00;
1457 : 00;
1458 : 00;
1459 : 00;
145A : 00;
145B : 00;
145C : 00;
145D : 00;
145E : 00;
145F : 00;
1460 : 00;
1461 : 00;
1462 : 00;
1463 : 00;
1464 : 00;
1465 : 00;
1466 : 00;
1467 : 00;
1468 : 00;
1469 : 00;
146A : 00;
146B : 00;
146C : 00;
146D : 00;
146E : 00;
146F : 00;
1470 : 00;
1471 : 00;
1472 : 00;
1473 : 00;
1474 : 00;
1475 : 00;
1476 : 00;
1477 : 00;
1478 : 00;
1479 : 00;
147A : 00;
147B : 00;
147C : 00;
147D : 00;
147E : 00;
147F : 00;
1480 : 00;
1481 : 00;
1482 : 00;
1483 : 00;
1484 : 00;
1485 : 00;
1486 : 00;
1487 : 00;
1488 : 00;
1489 : 00;
148A : 00;
148B : 00;
148C : 00;
148D : 00;
148E : 00;
148F : 00;
1490 : 00;
1491 : 00;
1492 : 00;
1493 : 00;
1494 : 00;
1495 : 00;
1496 : 00;
1497 : 00;
1498 : 00;
1499 : 00;
149A : 00;
149B : 00;
149C : 00;
149D : 00;
149E : 00;
149F : 00;
14A0 : 00;
14A1 : 00;
14A2 : 00;
14A3 : 00;
14A4 : 00;
14A5 : 00;
14A6 : 00;
14A7 : 00;
14A8 : 00;
14A9 : 00;
14AA : 00;
14AB : 00;
14AC : 00;
14AD : 00;
14AE : 00;
14AF : 00;
14B0 : 00;
14B1 : 00;
14B2 : 00;
14B3 : 00;
14B4 : 00;
14B5 : 00;
14B6 : 00;
14B7 : 00;
14B8 : 00;
14B9 : 00;
14BA : 00;
14BB : 00;
14BC : 00;
14BD : 00;
14BE : 00;
14BF : 00;
14C0 : 00;
14C1 : 00;
14C2 : 00;
14C3 : 00;
14C4 : 00;
14C5 : 00;
14C6 : 00;
14C7 : 00;
14C8 : 00;
14C9 : 00;
14CA : 00;
14CB : 00;
14CC : 00;
14CD : 00;
14CE : 00;
14CF : 00;
14D0 : 00;
14D1 : 00;
14D2 : 00;
14D3 : 00;
14D4 : 00;
14D5 : 00;
14D6 : 00;
14D7 : 00;
14D8 : 00;
14D9 : 00;
14DA : 00;
14DB : 00;
14DC : 00;
14DD : 00;
14DE : 00;
14DF : 00;
14E0 : 00;
14E1 : 00;
14E2 : 00;
14E3 : 00;
14E4 : 00;
14E5 : 00;
14E6 : 00;
14E7 : 00;
14E8 : 00;
14E9 : 00;
14EA : 00;
14EB : 00;
14EC : 00;
14ED : 00;
14EE : 00;
14EF : 00;
14F0 : 00;
14F1 : 00;
14F2 : 00;
14F3 : 00;
14F4 : 00;
14F5 : 00;
14F6 : 00;
14F7 : 00;
14F8 : 00;
14F9 : 00;
14FA : 00;
14FB : 00;
14FC : 00;
14FD : 00;
14FE : 00;
14FF : 00;
1500 : 00;
1501 : 00;
1502 : 00;
1503 : 00;
1504 : 00;
1505 : 00;
1506 : 00;
1507 : 00;
1508 : 00;
1509 : 00;
150A : 00;
150B : 00;
150C : 00;
150D : 00;
150E : 00;
150F : 00;
1510 : 00;
1511 : 00;
1512 : 00;
1513 : 00;
1514 : 00;
1515 : 00;
1516 : 00;
1517 : 00;
1518 : 00;
1519 : 00;
151A : 00;
151B : 00;
151C : 00;
151D : 00;
151E : 00;
151F : 00;
1520 : 00;
1521 : 00;
1522 : 00;
1523 : 00;
1524 : 00;
1525 : 00;
1526 : 00;
1527 : 00;
1528 : 00;
1529 : 00;
152A : 00;
152B : 00;
152C : 00;
152D : 00;
152E : 00;
152F : 00;
1530 : 00;
1531 : 00;
1532 : 00;
1533 : 00;
1534 : 00;
1535 : 00;
1536 : 00;
1537 : 00;
1538 : 00;
1539 : 00;
153A : 00;
153B : 00;
153C : 00;
153D : 00;
153E : 00;
153F : 00;
1540 : 00;
1541 : 00;
1542 : 00;
1543 : 00;
1544 : 00;
1545 : 00;
1546 : 00;
1547 : 00;
1548 : 00;
1549 : 00;
154A : 00;
154B : 00;
154C : 00;
154D : 00;
154E : 00;
154F : 00;
1550 : 00;
1551 : 00;
1552 : 00;
1553 : 00;
1554 : 00;
1555 : 00;
1556 : 00;
1557 : 00;
1558 : 00;
1559 : 00;
155A : 00;
155B : 00;
155C : 00;
155D : 00;
155E : 00;
155F : 00;
1560 : 00;
1561 : 00;
1562 : 00;
1563 : 00;
1564 : 00;
1565 : 00;
1566 : 00;
1567 : 00;
1568 : 00;
1569 : 00;
156A : 00;
156B : 00;
156C : 00;
156D : 00;
156E : 00;
156F : 00;
1570 : 00;
1571 : 00;
1572 : 00;
1573 : 00;
1574 : 00;
1575 : 00;
1576 : 00;
1577 : 00;
1578 : 00;
1579 : 00;
157A : 00;
157B : 00;
157C : 00;
157D : 00;
157E : 00;
157F : 00;
1580 : 00;
1581 : 00;
1582 : 00;
1583 : 00;
1584 : 00;
1585 : 00;
1586 : 00;
1587 : 00;
1588 : 00;
1589 : 00;
158A : 00;
158B : 00;
158C : 00;
158D : 00;
158E : 00;
158F : 00;
1590 : 00;
1591 : 00;
1592 : 00;
1593 : 00;
1594 : 00;
1595 : 00;
1596 : 00;
1597 : 00;
1598 : 00;
1599 : 00;
159A : 00;
159B : 00;
159C : 00;
159D : 00;
159E : 00;
159F : 00;
15A0 : 00;
15A1 : 00;
15A2 : 00;
15A3 : 00;
15A4 : 00;
15A5 : 00;
15A6 : 00;
15A7 : 00;
15A8 : 00;
15A9 : 00;
15AA : 00;
15AB : 00;
15AC : 00;
15AD : 00;
15AE : 00;
15AF : 00;
15B0 : 00;
15B1 : 00;
15B2 : 00;
15B3 : 00;
15B4 : 00;
15B5 : 00;
15B6 : 00;
15B7 : 00;
15B8 : 00;
15B9 : 00;
15BA : 00;
15BB : 00;
15BC : 00;
15BD : 00;
15BE : 00;
15BF : 00;
15C0 : 00;
15C1 : 00;
15C2 : 00;
15C3 : 00;
15C4 : 00;
15C5 : 00;
15C6 : 00;
15C7 : 00;
15C8 : 00;
15C9 : 00;
15CA : 00;
15CB : 00;
15CC : 00;
15CD : 00;
15CE : 00;
15CF : 00;
15D0 : 00;
15D1 : 00;
15D2 : 00;
15D3 : 00;
15D4 : 00;
15D5 : 00;
15D6 : 00;
15D7 : 00;
15D8 : 00;
15D9 : 00;
15DA : 00;
15DB : 00;
15DC : 00;
15DD : 00;
15DE : 00;
15DF : 00;
15E0 : 00;
15E1 : 00;
15E2 : 00;
15E3 : 00;
15E4 : 00;
15E5 : 00;
15E6 : 00;
15E7 : 00;
15E8 : 00;
15E9 : 00;
15EA : 00;
15EB : 00;
15EC : 00;
15ED : 00;
15EE : 00;
15EF : 00;
15F0 : 00;
15F1 : 00;
15F2 : 00;
15F3 : 00;
15F4 : 00;
15F5 : 00;
15F6 : 00;
15F7 : 00;
15F8 : 00;
15F9 : 00;
15FA : 00;
15FB : 00;
15FC : 00;
15FD : 00;
15FE : 00;
15FF : 00;
1600 : 00;
1601 : 00;
1602 : 00;
1603 : 00;
1604 : 00;
1605 : 00;
1606 : 00;
1607 : 00;
1608 : 00;
1609 : 00;
160A : 00;
160B : 00;
160C : 00;
160D : 00;
160E : 00;
160F : 00;
1610 : 00;
1611 : 00;
1612 : 00;
1613 : 00;
1614 : 00;
1615 : 00;
1616 : 00;
1617 : 00;
1618 : 00;
1619 : 00;
161A : 00;
161B : 00;
161C : 00;
161D : 00;
161E : 00;
161F : 00;
1620 : 00;
1621 : 00;
1622 : 00;
1623 : 00;
1624 : 00;
1625 : 00;
1626 : 00;
1627 : 00;
1628 : 00;
1629 : 00;
162A : 00;
162B : 00;
162C : 00;
162D : 00;
162E : 00;
162F : 00;
1630 : 00;
1631 : 00;
1632 : 00;
1633 : 00;
1634 : 00;
1635 : 00;
1636 : 00;
1637 : 00;
1638 : 00;
1639 : 00;
163A : 00;
163B : 00;
163C : 00;
163D : 00;
163E : 00;
163F : 00;
1640 : 00;
1641 : 00;
1642 : 00;
1643 : 00;
1644 : 00;
1645 : 00;
1646 : 00;
1647 : 00;
1648 : 00;
1649 : 00;
164A : 00;
164B : 00;
164C : 00;
164D : 00;
164E : 00;
164F : 00;
1650 : 00;
1651 : 00;
1652 : 00;
1653 : 00;
1654 : 00;
1655 : 00;
1656 : 00;
1657 : 00;
1658 : 00;
1659 : 00;
165A : 00;
165B : 00;
165C : 00;
165D : 00;
165E : 00;
165F : 00;
1660 : 00;
1661 : 00;
1662 : 00;
1663 : 00;
1664 : 00;
1665 : 00;
1666 : 00;
1667 : 00;
1668 : 00;
1669 : 00;
166A : 00;
166B : 00;
166C : 00;
166D : 00;
166E : 00;
166F : 00;
1670 : 00;
1671 : 00;
1672 : 00;
1673 : 00;
1674 : 00;
1675 : 00;
1676 : 00;
1677 : 00;
1678 : 00;
1679 : 00;
167A : 00;
167B : 00;
167C : 00;
167D : 00;
167E : 00;
167F : 00;
1680 : 00;
1681 : 00;
1682 : 00;
1683 : 00;
1684 : 00;
1685 : 00;
1686 : 00;
1687 : 00;
1688 : 00;
1689 : 00;
168A : 00;
168B : 00;
168C : 00;
168D : 00;
168E : 00;
168F : 00;
1690 : 00;
1691 : 00;
1692 : 00;
1693 : 00;
1694 : 00;
1695 : 00;
1696 : 00;
1697 : 00;
1698 : 00;
1699 : 00;
169A : 00;
169B : 00;
169C : 00;
169D : 00;
169E : 00;
169F : 00;
16A0 : 00;
16A1 : 00;
16A2 : 00;
16A3 : 00;
16A4 : 00;
16A5 : 00;
16A6 : 00;
16A7 : 00;
16A8 : 00;
16A9 : 00;
16AA : 00;
16AB : 00;
16AC : 00;
16AD : 00;
16AE : 00;
16AF : 00;
16B0 : 00;
16B1 : 00;
16B2 : 00;
16B3 : 00;
16B4 : 00;
16B5 : 00;
16B6 : 00;
16B7 : 00;
16B8 : 00;
16B9 : 00;
16BA : 00;
16BB : 00;
16BC : 00;
16BD : 00;
16BE : 00;
16BF : 00;
16C0 : 00;
16C1 : 00;
16C2 : 00;
16C3 : 00;
16C4 : 00;
16C5 : 00;
16C6 : 00;
16C7 : 00;
16C8 : 00;
16C9 : 00;
16CA : 00;
16CB : 00;
16CC : 00;
16CD : 00;
16CE : 00;
16CF : 00;
16D0 : 00;
16D1 : 00;
16D2 : 00;
16D3 : 00;
16D4 : 00;
16D5 : 00;
16D6 : 00;
16D7 : 00;
16D8 : 00;
16D9 : 00;
16DA : 00;
16DB : 00;
16DC : 00;
16DD : 00;
16DE : 00;
16DF : 00;
16E0 : 00;
16E1 : 00;
16E2 : 00;
16E3 : 00;
16E4 : 00;
16E5 : 00;
16E6 : 00;
16E7 : 00;
16E8 : 00;
16E9 : 00;
16EA : 00;
16EB : 00;
16EC : 00;
16ED : 00;
16EE : 00;
16EF : 00;
16F0 : 00;
16F1 : 00;
16F2 : 00;
16F3 : 00;
16F4 : 00;
16F5 : 00;
16F6 : 00;
16F7 : 00;
16F8 : 00;
16F9 : 00;
16FA : 00;
16FB : 00;
16FC : 00;
16FD : 00;
16FE : 00;
16FF : 00;
1700 : 00;
1701 : 00;
1702 : 00;
1703 : 00;
1704 : 00;
1705 : 00;
1706 : 00;
1707 : 00;
1708 : 00;
1709 : 00;
170A : 00;
170B : 00;
170C : 00;
170D : 00;
170E : 00;
170F : 00;
1710 : 00;
1711 : 00;
1712 : 00;
1713 : 00;
1714 : 00;
1715 : 00;
1716 : 00;
1717 : 00;
1718 : 00;
1719 : 00;
171A : 00;
171B : 00;
171C : 00;
171D : 00;
171E : 00;
171F : 00;
1720 : 00;
1721 : 00;
1722 : 00;
1723 : 00;
1724 : 00;
1725 : 00;
1726 : 00;
1727 : 00;
1728 : 00;
1729 : 00;
172A : 00;
172B : 00;
172C : 00;
172D : 00;
172E : 00;
172F : 00;
1730 : 00;
1731 : 00;
1732 : 00;
1733 : 00;
1734 : 00;
1735 : 00;
1736 : 00;
1737 : 00;
1738 : 00;
1739 : 00;
173A : 00;
173B : 00;
173C : 00;
173D : 00;
173E : 00;
173F : 00;
1740 : 00;
1741 : 00;
1742 : 00;
1743 : 00;
1744 : 00;
1745 : 00;
1746 : 00;
1747 : 00;
1748 : 00;
1749 : 00;
174A : 00;
174B : 00;
174C : 00;
174D : 00;
174E : 00;
174F : 00;
1750 : 00;
1751 : 00;
1752 : 00;
1753 : 00;
1754 : 00;
1755 : 00;
1756 : 00;
1757 : 00;
1758 : 00;
1759 : 00;
175A : 00;
175B : 00;
175C : 00;
175D : 00;
175E : 00;
175F : 00;
1760 : 00;
1761 : 00;
1762 : 00;
1763 : 00;
1764 : 00;
1765 : 00;
1766 : 00;
1767 : 00;
1768 : 00;
1769 : 00;
176A : 00;
176B : 00;
176C : 00;
176D : 00;
176E : 00;
176F : 00;
1770 : 00;
1771 : 00;
1772 : 00;
1773 : 00;
1774 : 00;
1775 : 00;
1776 : 00;
1777 : 00;
1778 : 00;
1779 : 00;
177A : 00;
177B : 00;
177C : 00;
177D : 00;
177E : 00;
177F : 00;
1780 : 00;
1781 : 00;
1782 : 00;
1783 : 00;
1784 : 00;
1785 : 00;
1786 : 00;
1787 : 00;
1788 : 00;
1789 : 00;
178A : 00;
178B : 00;
178C : 00;
178D : 00;
178E : 00;
178F : 00;
1790 : 00;
1791 : 00;
1792 : 00;
1793 : 00;
1794 : 00;
1795 : 00;
1796 : 00;
1797 : 00;
1798 : 00;
1799 : 00;
179A : 00;
179B : 00;
179C : 00;
179D : 00;
179E : 00;
179F : 00;
17A0 : 00;
17A1 : 00;
17A2 : 00;
17A3 : 00;
17A4 : 00;
17A5 : 00;
17A6 : 00;
17A7 : 00;
17A8 : 00;
17A9 : 00;
17AA : 00;
17AB : 00;
17AC : 00;
17AD : 00;
17AE : 00;
17AF : 00;
17B0 : 00;
17B1 : 00;
17B2 : 00;
17B3 : 00;
17B4 : 00;
17B5 : 00;
17B6 : 00;
17B7 : 00;
17B8 : 00;
17B9 : 00;
17BA : 00;
17BB : 00;
17BC : 00;
17BD : 00;
17BE : 00;
17BF : 00;
17C0 : 00;
17C1 : 00;
17C2 : 00;
17C3 : 00;
17C4 : 00;
17C5 : 00;
17C6 : 00;
17C7 : 00;
17C8 : 00;
17C9 : 00;
17CA : 00;
17CB : 00;
17CC : 00;
17CD : 00;
17CE : 00;
17CF : 00;
17D0 : 00;
17D1 : 00;
17D2 : 00;
17D3 : 00;
17D4 : 00;
17D5 : 00;
17D6 : 00;
17D7 : 00;
17D8 : 00;
17D9 : 00;
17DA : 00;
17DB : 00;
17DC : 00;
17DD : 00;
17DE : 00;
17DF : 00;
17E0 : 00;
17E1 : 00;
17E2 : 00;
17E3 : 00;
17E4 : 00;
17E5 : 00;
17E6 : 00;
17E7 : 00;
17E8 : 00;
17E9 : 00;
17EA : 00;
17EB : 00;
17EC : 00;
17ED : 00;
17EE : 00;
17EF : 00;
17F0 : 00;
17F1 : 00;
17F2 : 00;
17F3 : 00;
17F4 : 00;
17F5 : 00;
17F6 : 00;
17F7 : 00;
17F8 : 00;
17F9 : 00;
17FA : 00;
17FB : 00;
17FC : 00;
17FD : 00;
17FE : 00;
17FF : 00;
1800 : 00;
1801 : 00;
1802 : 00;
1803 : 00;
1804 : 00;
1805 : 00;
1806 : 00;
1807 : 00;
1808 : 00;
1809 : 00;
180A : 00;
180B : 00;
180C : 00;
180D : 00;
180E : 00;
180F : 00;
1810 : 00;
1811 : 00;
1812 : 00;
1813 : 00;
1814 : 00;
1815 : 00;
1816 : 00;
1817 : 00;
1818 : 00;
1819 : 00;
181A : 00;
181B : 00;
181C : 00;
181D : 00;
181E : 00;
181F : 00;
1820 : 00;
1821 : 00;
1822 : 00;
1823 : 00;
1824 : 00;
1825 : 00;
1826 : 00;
1827 : 00;
1828 : 00;
1829 : 00;
182A : 00;
182B : 00;
182C : 00;
182D : 00;
182E : 00;
182F : 00;
1830 : 00;
1831 : 00;
1832 : 00;
1833 : 00;
1834 : 00;
1835 : 00;
1836 : 00;
1837 : 00;
1838 : 00;
1839 : 00;
183A : 00;
183B : 00;
183C : 00;
183D : 00;
183E : 00;
183F : 00;
1840 : 00;
1841 : 00;
1842 : 00;
1843 : 00;
1844 : 00;
1845 : 00;
1846 : 00;
1847 : 00;
1848 : 00;
1849 : 00;
184A : 00;
184B : 00;
184C : 00;
184D : 00;
184E : 00;
184F : 00;
1850 : 00;
1851 : 00;
1852 : 00;
1853 : 00;
1854 : 00;
1855 : 00;
1856 : 00;
1857 : 00;
1858 : 00;
1859 : 00;
185A : 00;
185B : 00;
185C : 00;
185D : 00;
185E : 00;
185F : 00;
1860 : 00;
1861 : 00;
1862 : 00;
1863 : 00;
1864 : 00;
1865 : 00;
1866 : 00;
1867 : 00;
1868 : 00;
1869 : 00;
186A : 00;
186B : 00;
186C : 00;
186D : 00;
186E : 00;
186F : 00;
1870 : 00;
1871 : 00;
1872 : 00;
1873 : 00;
1874 : 00;
1875 : 00;
1876 : 00;
1877 : 00;
1878 : 00;
1879 : 00;
187A : 00;
187B : 00;
187C : 00;
187D : 00;
187E : 00;
187F : 00;
1880 : 00;
1881 : 00;
1882 : 00;
1883 : 00;
1884 : 00;
1885 : 00;
1886 : 00;
1887 : 00;
1888 : 00;
1889 : 00;
188A : 00;
188B : 00;
188C : 00;
188D : 00;
188E : 00;
188F : 00;
1890 : 00;
1891 : 00;
1892 : 00;
1893 : 00;
1894 : 00;
1895 : 00;
1896 : 00;
1897 : 00;
1898 : 00;
1899 : 00;
189A : 00;
189B : 00;
189C : 00;
189D : 00;
189E : 00;
189F : 00;
18A0 : 00;
18A1 : 00;
18A2 : 00;
18A3 : 00;
18A4 : 00;
18A5 : 00;
18A6 : 00;
18A7 : 00;
18A8 : 00;
18A9 : 00;
18AA : 00;
18AB : 00;
18AC : 00;
18AD : 00;
18AE : 00;
18AF : 00;
18B0 : 00;
18B1 : 00;
18B2 : 00;
18B3 : 00;
18B4 : 00;
18B5 : 00;
18B6 : 00;
18B7 : 00;
18B8 : 00;
18B9 : 00;
18BA : 00;
18BB : 00;
18BC : 00;
18BD : 00;
18BE : 00;
18BF : 00;
18C0 : 00;
18C1 : 00;
18C2 : 00;
18C3 : 00;
18C4 : 00;
18C5 : 00;
18C6 : 00;
18C7 : 00;
18C8 : 00;
18C9 : 00;
18CA : 00;
18CB : 00;
18CC : 00;
18CD : 00;
18CE : 00;
18CF : 00;
18D0 : 00;
18D1 : 00;
18D2 : 00;
18D3 : 00;
18D4 : 00;
18D5 : 00;
18D6 : 00;
18D7 : 00;
18D8 : 00;
18D9 : 00;
18DA : 00;
18DB : 00;
18DC : 00;
18DD : 00;
18DE : 00;
18DF : 00;
18E0 : 00;
18E1 : 00;
18E2 : 00;
18E3 : 00;
18E4 : 00;
18E5 : 00;
18E6 : 00;
18E7 : 00;
18E8 : 00;
18E9 : 00;
18EA : 00;
18EB : 00;
18EC : 00;
18ED : 00;
18EE : 00;
18EF : 00;
18F0 : 00;
18F1 : 00;
18F2 : 00;
18F3 : 00;
18F4 : 00;
18F5 : 00;
18F6 : 00;
18F7 : 00;
18F8 : 00;
18F9 : 00;
18FA : 00;
18FB : 00;
18FC : 00;
18FD : 00;
18FE : 00;
18FF : 00;
1900 : 00;
1901 : 00;
1902 : 00;
1903 : 00;
1904 : 00;
1905 : 00;
1906 : 00;
1907 : 00;
1908 : 00;
1909 : 00;
190A : 00;
190B : 00;
190C : 00;
190D : 00;
190E : 00;
190F : 00;
1910 : 00;
1911 : 00;
1912 : 00;
1913 : 00;
1914 : 00;
1915 : 00;
1916 : 00;
1917 : 00;
1918 : 00;
1919 : 00;
191A : 00;
191B : 00;
191C : 00;
191D : 00;
191E : 00;
191F : 00;
1920 : 00;
1921 : 00;
1922 : 00;
1923 : 00;
1924 : 00;
1925 : 00;
1926 : 00;
1927 : 00;
1928 : 00;
1929 : 00;
192A : 00;
192B : 00;
192C : 00;
192D : 00;
192E : 00;
192F : 00;
1930 : 00;
1931 : 00;
1932 : 00;
1933 : 00;
1934 : 00;
1935 : 00;
1936 : 00;
1937 : 00;
1938 : 00;
1939 : 00;
193A : 00;
193B : 00;
193C : 00;
193D : 00;
193E : 00;
193F : 00;
1940 : 00;
1941 : 00;
1942 : 00;
1943 : 00;
1944 : 00;
1945 : 00;
1946 : 00;
1947 : 00;
1948 : 00;
1949 : 00;
194A : 00;
194B : 00;
194C : 00;
194D : 00;
194E : 00;
194F : 00;
1950 : 00;
1951 : 00;
1952 : 00;
1953 : 00;
1954 : 00;
1955 : 00;
1956 : 00;
1957 : 00;
1958 : 00;
1959 : 00;
195A : 00;
195B : 00;
195C : 00;
195D : 00;
195E : 00;
195F : 00;
1960 : 00;
1961 : 00;
1962 : 00;
1963 : 00;
1964 : 00;
1965 : 00;
1966 : 00;
1967 : 00;
1968 : 00;
1969 : 00;
196A : 00;
196B : 00;
196C : 00;
196D : 00;
196E : 00;
196F : 00;
1970 : 00;
1971 : 00;
1972 : 00;
1973 : 00;
1974 : 00;
1975 : 00;
1976 : 00;
1977 : 00;
1978 : 00;
1979 : 00;
197A : 00;
197B : 00;
197C : 00;
197D : 00;
197E : 00;
197F : 00;
1980 : 00;
1981 : 00;
1982 : 00;
1983 : 00;
1984 : 00;
1985 : 00;
1986 : 00;
1987 : 00;
1988 : 00;
1989 : 00;
198A : 00;
198B : 00;
198C : 00;
198D : 00;
198E : 00;
198F : 00;
1990 : 00;
1991 : 00;
1992 : 00;
1993 : 00;
1994 : 00;
1995 : 00;
1996 : 00;
1997 : 00;
1998 : 00;
1999 : 00;
199A : 00;
199B : 00;
199C : 00;
199D : 00;
199E : 00;
199F : 00;
19A0 : 00;
19A1 : 00;
19A2 : 00;
19A3 : 00;
19A4 : 00;
19A5 : 00;
19A6 : 00;
19A7 : 00;
19A8 : 00;
19A9 : 00;
19AA : 00;
19AB : 00;
19AC : 00;
19AD : 00;
19AE : 00;
19AF : 00;
19B0 : 00;
19B1 : 00;
19B2 : 00;
19B3 : 00;
19B4 : 00;
19B5 : 00;
19B6 : 00;
19B7 : 00;
19B8 : 00;
19B9 : 00;
19BA : 00;
19BB : 00;
19BC : 00;
19BD : 00;
19BE : 00;
19BF : 00;
19C0 : 00;
19C1 : 00;
19C2 : 00;
19C3 : 00;
19C4 : 00;
19C5 : 00;
19C6 : 00;
19C7 : 00;
19C8 : 00;
19C9 : 00;
19CA : 00;
19CB : 00;
19CC : 00;
19CD : 00;
19CE : 00;
19CF : 00;
19D0 : 00;
19D1 : 00;
19D2 : 00;
19D3 : 00;
19D4 : 00;
19D5 : 00;
19D6 : 00;
19D7 : 00;
19D8 : 00;
19D9 : 00;
19DA : 00;
19DB : 00;
19DC : 00;
19DD : 00;
19DE : 00;
19DF : 00;
19E0 : 00;
19E1 : 00;
19E2 : 00;
19E3 : 00;
19E4 : 00;
19E5 : 00;
19E6 : 00;
19E7 : 00;
19E8 : 00;
19E9 : 00;
19EA : 00;
19EB : 00;
19EC : 00;
19ED : 00;
19EE : 00;
19EF : 00;
19F0 : 00;
19F1 : 00;
19F2 : 00;
19F3 : 00;
19F4 : 00;
19F5 : 00;
19F6 : 00;
19F7 : 00;
19F8 : 00;
19F9 : 00;
19FA : 00;
19FB : 00;
19FC : 00;
19FD : 00;
19FE : 00;
19FF : 00;
1A00 : 00;
1A01 : 00;
1A02 : 00;
1A03 : 00;
1A04 : 00;
1A05 : 00;
1A06 : 00;
1A07 : 00;
1A08 : 00;
1A09 : 00;
1A0A : 00;
1A0B : 00;
1A0C : 00;
1A0D : 00;
1A0E : 00;
1A0F : 00;
1A10 : 00;
1A11 : 00;
1A12 : 00;
1A13 : 00;
1A14 : 00;
1A15 : 00;
1A16 : 00;
1A17 : 00;
1A18 : 00;
1A19 : 00;
1A1A : 00;
1A1B : 00;
1A1C : 00;
1A1D : 00;
1A1E : 00;
1A1F : 00;
1A20 : 00;
1A21 : 00;
1A22 : 00;
1A23 : 00;
1A24 : 00;
1A25 : 00;
1A26 : 00;
1A27 : 00;
1A28 : 00;
1A29 : 00;
1A2A : 00;
1A2B : 00;
1A2C : 00;
1A2D : 00;
1A2E : 00;
1A2F : 00;
1A30 : 00;
1A31 : 00;
1A32 : 00;
1A33 : 00;
1A34 : 00;
1A35 : 00;
1A36 : 00;
1A37 : 00;
1A38 : 00;
1A39 : 00;
1A3A : 00;
1A3B : 00;
1A3C : 00;
1A3D : 00;
1A3E : 00;
1A3F : 00;
1A40 : 00;
1A41 : 00;
1A42 : 00;
1A43 : 00;
1A44 : 00;
1A45 : 00;
1A46 : 00;
1A47 : 00;
1A48 : 00;
1A49 : 00;
1A4A : 00;
1A4B : 00;
1A4C : 00;
1A4D : 00;
1A4E : 00;
1A4F : 00;
1A50 : 00;
1A51 : 00;
1A52 : 00;
1A53 : 00;
1A54 : 00;
1A55 : 00;
1A56 : 00;
1A57 : 00;
1A58 : 00;
1A59 : 00;
1A5A : 00;
1A5B : 00;
1A5C : 00;
1A5D : 00;
1A5E : 00;
1A5F : 00;
1A60 : 00;
1A61 : 00;
1A62 : 00;
1A63 : 00;
1A64 : 00;
1A65 : 00;
1A66 : 00;
1A67 : 00;
1A68 : 00;
1A69 : 00;
1A6A : 00;
1A6B : 00;
1A6C : 00;
1A6D : 00;
1A6E : 00;
1A6F : 00;
1A70 : 00;
1A71 : 00;
1A72 : 00;
1A73 : 00;
1A74 : 00;
1A75 : 00;
1A76 : 00;
1A77 : 00;
1A78 : 00;
1A79 : 00;
1A7A : 00;
1A7B : 00;
1A7C : 00;
1A7D : 00;
1A7E : 00;
1A7F : 00;
1A80 : 00;
1A81 : 00;
1A82 : 00;
1A83 : 00;
1A84 : 00;
1A85 : 00;
1A86 : 00;
1A87 : 00;
1A88 : 00;
1A89 : 00;
1A8A : 00;
1A8B : 00;
1A8C : 00;
1A8D : 00;
1A8E : 00;
1A8F : 00;
1A90 : 00;
1A91 : 00;
1A92 : 00;
1A93 : 00;
1A94 : 00;
1A95 : 00;
1A96 : 00;
1A97 : 00;
1A98 : 00;
1A99 : 00;
1A9A : 00;
1A9B : 00;
1A9C : 00;
1A9D : 00;
1A9E : 00;
1A9F : 00;
1AA0 : 00;
1AA1 : 00;
1AA2 : 00;
1AA3 : 00;
1AA4 : 00;
1AA5 : 00;
1AA6 : 00;
1AA7 : 00;
1AA8 : 00;
1AA9 : 00;
1AAA : 00;
1AAB : 00;
1AAC : 00;
1AAD : 00;
1AAE : 00;
1AAF : 00;
1AB0 : 00;
1AB1 : 00;
1AB2 : 00;
1AB3 : 00;
1AB4 : 00;
1AB5 : 00;
1AB6 : 00;
1AB7 : 00;
1AB8 : 00;
1AB9 : 00;
1ABA : 00;
1ABB : 00;
1ABC : 00;
1ABD : 00;
1ABE : 00;
1ABF : 00;
1AC0 : 00;
1AC1 : 00;
1AC2 : 00;
1AC3 : 00;
1AC4 : 00;
1AC5 : 00;
1AC6 : 00;
1AC7 : 00;
1AC8 : 00;
1AC9 : 00;
1ACA : 00;
1ACB : 00;
1ACC : 00;
1ACD : 00;
1ACE : 00;
1ACF : 00;
1AD0 : 00;
1AD1 : 00;
1AD2 : 00;
1AD3 : 00;
1AD4 : 00;
1AD5 : 00;
1AD6 : 00;
1AD7 : 00;
1AD8 : 00;
1AD9 : 00;
1ADA : 00;
1ADB : 00;
1ADC : 00;
1ADD : 00;
1ADE : 00;
1ADF : 00;
1AE0 : 00;
1AE1 : 00;
1AE2 : 00;
1AE3 : 00;
1AE4 : 00;
1AE5 : 00;
1AE6 : 00;
1AE7 : 00;
1AE8 : 00;
1AE9 : 00;
1AEA : 00;
1AEB : 00;
1AEC : 00;
1AED : 00;
1AEE : 00;
1AEF : 00;
1AF0 : 00;
1AF1 : 00;
1AF2 : 00;
1AF3 : 00;
1AF4 : 00;
1AF5 : 00;
1AF6 : 00;
1AF7 : 00;
1AF8 : 00;
1AF9 : 00;
1AFA : 00;
1AFB : 00;
1AFC : 00;
1AFD : 00;
1AFE : 00;
1AFF : 00;
1B00 : 00;
1B01 : 00;
1B02 : 00;
1B03 : 00;
1B04 : 00;
1B05 : 00;
1B06 : 00;
1B07 : 00;
1B08 : 00;
1B09 : 00;
1B0A : 00;
1B0B : 00;
1B0C : 00;
1B0D : 00;
1B0E : 00;
1B0F : 00;
1B10 : 00;
1B11 : 00;
1B12 : 00;
1B13 : 00;
1B14 : 00;
1B15 : 00;
1B16 : 00;
1B17 : 00;
1B18 : 00;
1B19 : 00;
1B1A : 00;
1B1B : 00;
1B1C : 00;
1B1D : 00;
1B1E : 00;
1B1F : 00;
1B20 : 00;
1B21 : 00;
1B22 : 00;
1B23 : 00;
1B24 : 00;
1B25 : 00;
1B26 : 00;
1B27 : 00;
1B28 : 00;
1B29 : 00;
1B2A : 00;
1B2B : 00;
1B2C : 00;
1B2D : 00;
1B2E : 00;
1B2F : 00;
1B30 : 00;
1B31 : 00;
1B32 : 00;
1B33 : 00;
1B34 : 00;
1B35 : 00;
1B36 : 00;
1B37 : 00;
1B38 : 00;
1B39 : 00;
1B3A : 00;
1B3B : 00;
1B3C : 00;
1B3D : 00;
1B3E : 00;
1B3F : 00;
1B40 : 00;
1B41 : 00;
1B42 : 00;
1B43 : 00;
1B44 : 00;
1B45 : 00;
1B46 : 00;
1B47 : 00;
1B48 : 00;
1B49 : 00;
1B4A : 00;
1B4B : 00;
1B4C : 00;
1B4D : 00;
1B4E : 00;
1B4F : 00;
1B50 : 00;
1B51 : 00;
1B52 : 00;
1B53 : 00;
1B54 : 00;
1B55 : 00;
1B56 : 00;
1B57 : 00;
1B58 : 00;
1B59 : 00;
1B5A : 00;
1B5B : 00;
1B5C : 00;
1B5D : 00;
1B5E : 00;
1B5F : 00;
1B60 : 00;
1B61 : 00;
1B62 : 00;
1B63 : 00;
1B64 : 00;
1B65 : 00;
1B66 : 00;
1B67 : 00;
1B68 : 00;
1B69 : 00;
1B6A : 00;
1B6B : 00;
1B6C : 00;
1B6D : 00;
1B6E : 00;
1B6F : 00;
1B70 : 00;
1B71 : 00;
1B72 : 00;
1B73 : 00;
1B74 : 00;
1B75 : 00;
1B76 : 00;
1B77 : 00;
1B78 : 00;
1B79 : 00;
1B7A : 00;
1B7B : 00;
1B7C : 00;
1B7D : 00;
1B7E : 00;
1B7F : 00;
1B80 : 00;
1B81 : 00;
1B82 : 00;
1B83 : 00;
1B84 : 00;
1B85 : 00;
1B86 : 00;
1B87 : 00;
1B88 : 00;
1B89 : 00;
1B8A : 00;
1B8B : 00;
1B8C : 00;
1B8D : 00;
1B8E : 00;
1B8F : 00;
1B90 : 00;
1B91 : 00;
1B92 : 00;
1B93 : 00;
1B94 : 00;
1B95 : 00;
1B96 : 00;
1B97 : 00;
1B98 : 00;
1B99 : 00;
1B9A : 00;
1B9B : 00;
1B9C : 00;
1B9D : 00;
1B9E : 00;
1B9F : 00;
1BA0 : 00;
1BA1 : 00;
1BA2 : 00;
1BA3 : 00;
1BA4 : 00;
1BA5 : 00;
1BA6 : 00;
1BA7 : 00;
1BA8 : 00;
1BA9 : 00;
1BAA : 00;
1BAB : 00;
1BAC : 00;
1BAD : 00;
1BAE : 00;
1BAF : 00;
1BB0 : 00;
1BB1 : 00;
1BB2 : 00;
1BB3 : 00;
1BB4 : 00;
1BB5 : 00;
1BB6 : 00;
1BB7 : 00;
1BB8 : 00;
1BB9 : 00;
1BBA : 00;
1BBB : 00;
1BBC : 00;
1BBD : 00;
1BBE : 00;
1BBF : 00;
1BC0 : 00;
1BC1 : 00;
1BC2 : 00;
1BC3 : 00;
1BC4 : 00;
1BC5 : 00;
1BC6 : 00;
1BC7 : 00;
1BC8 : 00;
1BC9 : 00;
1BCA : 00;
1BCB : 00;
1BCC : 00;
1BCD : 00;
1BCE : 00;
1BCF : 00;
1BD0 : 00;
1BD1 : 00;
1BD2 : 00;
1BD3 : 00;
1BD4 : 00;
1BD5 : 00;
1BD6 : 00;
1BD7 : 00;
1BD8 : 00;
1BD9 : 00;
1BDA : 00;
1BDB : 00;
1BDC : 00;
1BDD : 00;
1BDE : 00;
1BDF : 00;
1BE0 : 00;
1BE1 : 00;
1BE2 : 00;
1BE3 : 00;
1BE4 : 00;
1BE5 : 00;
1BE6 : 00;
1BE7 : 00;
1BE8 : 00;
1BE9 : 00;
1BEA : 00;
1BEB : 00;
1BEC : 00;
1BED : 00;
1BEE : 00;
1BEF : 00;
1BF0 : 00;
1BF1 : 00;
1BF2 : 00;
1BF3 : 00;
1BF4 : 00;
1BF5 : 00;
1BF6 : 00;
1BF7 : 00;
1BF8 : 00;
1BF9 : 00;
1BFA : 00;
1BFB : 00;
1BFC : 00;
1BFD : 00;
1BFE : 00;
1BFF : 00;
1C00 : 00;
1C01 : 00;
1C02 : 00;
1C03 : 00;
1C04 : 00;
1C05 : 00;
1C06 : 00;
1C07 : 00;
1C08 : 00;
1C09 : 00;
1C0A : 00;
1C0B : 00;
1C0C : 00;
1C0D : 00;
1C0E : 00;
1C0F : 00;
1C10 : 00;
1C11 : 00;
1C12 : 00;
1C13 : 00;
1C14 : 00;
1C15 : 00;
1C16 : 00;
1C17 : 00;
1C18 : 00;
1C19 : 00;
1C1A : 00;
1C1B : 00;
1C1C : 00;
1C1D : 00;
1C1E : 00;
1C1F : 00;
1C20 : 00;
1C21 : 00;
1C22 : 00;
1C23 : 00;
1C24 : 00;
1C25 : 00;
1C26 : 00;
1C27 : 00;
1C28 : 00;
1C29 : 00;
1C2A : 00;
1C2B : 00;
1C2C : 00;
1C2D : 00;
1C2E : 00;
1C2F : 00;
1C30 : 00;
1C31 : 00;
1C32 : 00;
1C33 : 00;
1C34 : 00;
1C35 : 00;
1C36 : 00;
1C37 : 00;
1C38 : 00;
1C39 : 00;
1C3A : 00;
1C3B : 00;
1C3C : 00;
1C3D : 00;
1C3E : 00;
1C3F : 00;
1C40 : 00;
1C41 : 00;
1C42 : 00;
1C43 : 00;
1C44 : 00;
1C45 : 00;
1C46 : 00;
1C47 : 00;
1C48 : 00;
1C49 : 00;
1C4A : 00;
1C4B : 00;
1C4C : 00;
1C4D : 00;
1C4E : 00;
1C4F : 00;
1C50 : 00;
1C51 : 00;
1C52 : 00;
1C53 : 00;
1C54 : 00;
1C55 : 00;
1C56 : 00;
1C57 : 00;
1C58 : 00;
1C59 : 00;
1C5A : 00;
1C5B : 00;
1C5C : 00;
1C5D : 00;
1C5E : 00;
1C5F : 00;
1C60 : 00;
1C61 : 00;
1C62 : 00;
1C63 : 00;
1C64 : 00;
1C65 : 00;
1C66 : 00;
1C67 : 00;
1C68 : 00;
1C69 : 00;
1C6A : 00;
1C6B : 00;
1C6C : 00;
1C6D : 00;
1C6E : 00;
1C6F : 00;
1C70 : 00;
1C71 : 00;
1C72 : 00;
1C73 : 00;
1C74 : 00;
1C75 : 00;
1C76 : 00;
1C77 : 00;
1C78 : 00;
1C79 : 00;
1C7A : 00;
1C7B : 00;
1C7C : 00;
1C7D : 00;
1C7E : 00;
1C7F : 00;
1C80 : 00;
1C81 : 00;
1C82 : 00;
1C83 : 00;
1C84 : 00;
1C85 : 00;
1C86 : 00;
1C87 : 00;
1C88 : 00;
1C89 : 00;
1C8A : 00;
1C8B : 00;
1C8C : 00;
1C8D : 00;
1C8E : 00;
1C8F : 00;
1C90 : 00;
1C91 : 00;
1C92 : 00;
1C93 : 00;
1C94 : 00;
1C95 : 00;
1C96 : 00;
1C97 : 00;
1C98 : 00;
1C99 : 00;
1C9A : 00;
1C9B : 00;
1C9C : 00;
1C9D : 00;
1C9E : 00;
1C9F : 00;
1CA0 : 00;
1CA1 : 00;
1CA2 : 00;
1CA3 : 00;
1CA4 : 00;
1CA5 : 00;
1CA6 : 00;
1CA7 : 00;
1CA8 : 00;
1CA9 : 00;
1CAA : 00;
1CAB : 00;
1CAC : 00;
1CAD : 00;
1CAE : 00;
1CAF : 00;
1CB0 : 00;
1CB1 : 00;
1CB2 : 00;
1CB3 : 00;
1CB4 : 00;
1CB5 : 00;
1CB6 : 00;
1CB7 : 00;
1CB8 : 00;
1CB9 : 00;
1CBA : 00;
1CBB : 00;
1CBC : 00;
1CBD : 00;
1CBE : 00;
1CBF : 00;
1CC0 : 00;
1CC1 : 00;
1CC2 : 00;
1CC3 : 00;
1CC4 : 00;
1CC5 : 00;
1CC6 : 00;
1CC7 : 00;
1CC8 : 00;
1CC9 : 00;
1CCA : 00;
1CCB : 00;
1CCC : 00;
1CCD : 00;
1CCE : 00;
1CCF : 00;
1CD0 : 00;
1CD1 : 00;
1CD2 : 00;
1CD3 : 00;
1CD4 : 00;
1CD5 : 00;
1CD6 : 00;
1CD7 : 00;
1CD8 : 00;
1CD9 : 00;
1CDA : 00;
1CDB : 00;
1CDC : 00;
1CDD : 00;
1CDE : 00;
1CDF : 00;
1CE0 : 00;
1CE1 : 00;
1CE2 : 00;
1CE3 : 00;
1CE4 : 00;
1CE5 : 00;
1CE6 : 00;
1CE7 : 00;
1CE8 : 00;
1CE9 : 00;
1CEA : 00;
1CEB : 00;
1CEC : 00;
1CED : 00;
1CEE : 00;
1CEF : 00;
1CF0 : 00;
1CF1 : 00;
1CF2 : 00;
1CF3 : 00;
1CF4 : 00;
1CF5 : 00;
1CF6 : 00;
1CF7 : 00;
1CF8 : 00;
1CF9 : 00;
1CFA : 00;
1CFB : 00;
1CFC : 00;
1CFD : 00;
1CFE : 00;
1CFF : 00;
1D00 : 00;
1D01 : 00;
1D02 : 00;
1D03 : 00;
1D04 : 00;
1D05 : 00;
1D06 : 00;
1D07 : 00;
1D08 : 00;
1D09 : 00;
1D0A : 00;
1D0B : 00;
1D0C : 00;
1D0D : 00;
1D0E : 00;
1D0F : 00;
1D10 : 00;
1D11 : 00;
1D12 : 00;
1D13 : 00;
1D14 : 00;
1D15 : 00;
1D16 : 00;
1D17 : 00;
1D18 : 00;
1D19 : 00;
1D1A : 00;
1D1B : 00;
1D1C : 00;
1D1D : 00;
1D1E : 00;
1D1F : 00;
1D20 : 00;
1D21 : 00;
1D22 : 00;
1D23 : 00;
1D24 : 00;
1D25 : 00;
1D26 : 00;
1D27 : 00;
1D28 : 00;
1D29 : 00;
1D2A : 00;
1D2B : 00;
1D2C : 00;
1D2D : 00;
1D2E : 00;
1D2F : 00;
1D30 : 00;
1D31 : 00;
1D32 : 00;
1D33 : 00;
1D34 : 00;
1D35 : 00;
1D36 : 00;
1D37 : 00;
1D38 : 00;
1D39 : 00;
1D3A : 00;
1D3B : 00;
1D3C : 00;
1D3D : 00;
1D3E : 00;
1D3F : 00;
1D40 : 00;
1D41 : 00;
1D42 : 00;
1D43 : 00;
1D44 : 00;
1D45 : 00;
1D46 : 00;
1D47 : 00;
1D48 : 00;
1D49 : 00;
1D4A : 00;
1D4B : 00;
1D4C : 00;
1D4D : 00;
1D4E : 00;
1D4F : 00;
1D50 : 00;
1D51 : 00;
1D52 : 00;
1D53 : 00;
1D54 : 00;
1D55 : 00;
1D56 : 00;
1D57 : 00;
1D58 : 00;
1D59 : 00;
1D5A : 00;
1D5B : 00;
1D5C : 00;
1D5D : 00;
1D5E : 00;
1D5F : 00;
1D60 : 00;
1D61 : 00;
1D62 : 00;
1D63 : 00;
1D64 : 00;
1D65 : 00;
1D66 : 00;
1D67 : 00;
1D68 : 00;
1D69 : 00;
1D6A : 00;
1D6B : 00;
1D6C : 00;
1D6D : 00;
1D6E : 00;
1D6F : 00;
1D70 : 00;
1D71 : 00;
1D72 : 00;
1D73 : 00;
1D74 : 00;
1D75 : 00;
1D76 : 00;
1D77 : 00;
1D78 : 00;
1D79 : 00;
1D7A : 00;
1D7B : 00;
1D7C : 00;
1D7D : 00;
1D7E : 00;
1D7F : 00;
1D80 : 00;
1D81 : 00;
1D82 : 00;
1D83 : 00;
1D84 : 00;
1D85 : 00;
1D86 : 00;
1D87 : 00;
1D88 : 00;
1D89 : 00;
1D8A : 00;
1D8B : 00;
1D8C : 00;
1D8D : 00;
1D8E : 00;
1D8F : 00;
1D90 : 00;
1D91 : 00;
1D92 : 00;
1D93 : 00;
1D94 : 00;
1D95 : 00;
1D96 : 00;
1D97 : 00;
1D98 : 00;
1D99 : 00;
1D9A : 00;
1D9B : 00;
1D9C : 00;
1D9D : 00;
1D9E : 00;
1D9F : 00;
1DA0 : 00;
1DA1 : 00;
1DA2 : 00;
1DA3 : 00;
1DA4 : 00;
1DA5 : 00;
1DA6 : 00;
1DA7 : 00;
1DA8 : 00;
1DA9 : 00;
1DAA : 00;
1DAB : 00;
1DAC : 00;
1DAD : 00;
1DAE : 00;
1DAF : 00;
1DB0 : 00;
1DB1 : 00;
1DB2 : 00;
1DB3 : 00;
1DB4 : 00;
1DB5 : 00;
1DB6 : 00;
1DB7 : 00;
1DB8 : 00;
1DB9 : 00;
1DBA : 00;
1DBB : 00;
1DBC : 00;
1DBD : 00;
1DBE : 00;
1DBF : 00;
1DC0 : 00;
1DC1 : 00;
1DC2 : 00;
1DC3 : 00;
1DC4 : 00;
1DC5 : 00;
1DC6 : 00;
1DC7 : 00;
1DC8 : 00;
1DC9 : 00;
1DCA : 00;
1DCB : 00;
1DCC : 00;
1DCD : 00;
1DCE : 00;
1DCF : 00;
1DD0 : 00;
1DD1 : 00;
1DD2 : 00;
1DD3 : 00;
1DD4 : 00;
1DD5 : 00;
1DD6 : 00;
1DD7 : 00;
1DD8 : 00;
1DD9 : 00;
1DDA : 00;
1DDB : 00;
1DDC : 00;
1DDD : 00;
1DDE : 00;
1DDF : 00;
1DE0 : 00;
1DE1 : 00;
1DE2 : 00;
1DE3 : 00;
1DE4 : 00;
1DE5 : 00;
1DE6 : 00;
1DE7 : 00;
1DE8 : 00;
1DE9 : 00;
1DEA : 00;
1DEB : 00;
1DEC : 00;
1DED : 00;
1DEE : 00;
1DEF : 00;
1DF0 : 00;
1DF1 : 00;
1DF2 : 00;
1DF3 : 00;
1DF4 : 00;
1DF5 : 00;
1DF6 : 00;
1DF7 : 00;
1DF8 : 00;
1DF9 : 00;
1DFA : 00;
1DFB : 00;
1DFC : 00;
1DFD : 00;
1DFE : 00;
1DFF : 00;
1E00 : 00;
1E01 : 00;
1E02 : 00;
1E03 : 00;
1E04 : 00;
1E05 : 00;
1E06 : 00;
1E07 : 00;
1E08 : 00;
1E09 : 00;
1E0A : 00;
1E0B : 00;
1E0C : 00;
1E0D : 00;
1E0E : 00;
1E0F : 00;
1E10 : 00;
1E11 : 00;
1E12 : 00;
1E13 : 00;
1E14 : 00;
1E15 : 00;
1E16 : 00;
1E17 : 00;
1E18 : 00;
1E19 : 00;
1E1A : 00;
1E1B : 00;
1E1C : 00;
1E1D : 00;
1E1E : 00;
1E1F : 00;
1E20 : 00;
1E21 : 00;
1E22 : 00;
1E23 : 00;
1E24 : 00;
1E25 : 00;
1E26 : 00;
1E27 : 00;
1E28 : 00;
1E29 : 00;
1E2A : 00;
1E2B : 00;
1E2C : 00;
1E2D : 00;
1E2E : 00;
1E2F : 00;
1E30 : 00;
1E31 : 00;
1E32 : 00;
1E33 : 00;
1E34 : 00;
1E35 : 00;
1E36 : 00;
1E37 : 00;
1E38 : 00;
1E39 : 00;
1E3A : 00;
1E3B : 00;
1E3C : 00;
1E3D : 00;
1E3E : 00;
1E3F : 00;
1E40 : 00;
1E41 : 00;
1E42 : 00;
1E43 : 00;
1E44 : 00;
1E45 : 00;
1E46 : 00;
1E47 : 00;
1E48 : 00;
1E49 : 00;
1E4A : 00;
1E4B : 00;
1E4C : 00;
1E4D : 00;
1E4E : 00;
1E4F : 00;
1E50 : 00;
1E51 : 00;
1E52 : 00;
1E53 : 00;
1E54 : 00;
1E55 : 00;
1E56 : 00;
1E57 : 00;
1E58 : 00;
1E59 : 00;
1E5A : 00;
1E5B : 00;
1E5C : 00;
1E5D : 00;
1E5E : 00;
1E5F : 00;
1E60 : 00;
1E61 : 00;
1E62 : 00;
1E63 : 00;
1E64 : 00;
1E65 : 00;
1E66 : 00;
1E67 : 00;
1E68 : 00;
1E69 : 00;
1E6A : 00;
1E6B : 00;
1E6C : 00;
1E6D : 00;
1E6E : 00;
1E6F : 00;
1E70 : 00;
1E71 : 00;
1E72 : 00;
1E73 : 00;
1E74 : 00;
1E75 : 00;
1E76 : 00;
1E77 : 00;
1E78 : 00;
1E79 : 00;
1E7A : 00;
1E7B : 00;
1E7C : 00;
1E7D : 00;
1E7E : 00;
1E7F : 00;
1E80 : 00;
1E81 : 00;
1E82 : 00;
1E83 : 00;
1E84 : 00;
1E85 : 00;
1E86 : 00;
1E87 : 00;
1E88 : 00;
1E89 : 00;
1E8A : 00;
1E8B : 00;
1E8C : 00;
1E8D : 00;
1E8E : 00;
1E8F : 00;
1E90 : 00;
1E91 : 00;
1E92 : 00;
1E93 : 00;
1E94 : 00;
1E95 : 00;
1E96 : 00;
1E97 : 00;
1E98 : 00;
1E99 : 00;
1E9A : 00;
1E9B : 00;
1E9C : 00;
1E9D : 00;
1E9E : 00;
1E9F : 00;
1EA0 : 00;
1EA1 : 00;
1EA2 : 00;
1EA3 : 00;
1EA4 : 00;
1EA5 : 00;
1EA6 : 00;
1EA7 : 00;
1EA8 : 00;
1EA9 : 00;
1EAA : 00;
1EAB : 00;
1EAC : 00;
1EAD : 00;
1EAE : 00;
1EAF : 00;
1EB0 : 00;
1EB1 : 00;
1EB2 : 00;
1EB3 : 00;
1EB4 : 00;
1EB5 : 00;
1EB6 : 00;
1EB7 : 00;
1EB8 : 00;
1EB9 : 00;
1EBA : 00;
1EBB : 00;
1EBC : 00;
1EBD : 00;
1EBE : 00;
1EBF : 00;
1EC0 : 00;
1EC1 : 00;
1EC2 : 00;
1EC3 : 00;
1EC4 : 00;
1EC5 : 00;
1EC6 : 00;
1EC7 : 00;
1EC8 : 00;
1EC9 : 00;
1ECA : 00;
1ECB : 00;
1ECC : 00;
1ECD : 00;
1ECE : 00;
1ECF : 00;
1ED0 : 00;
1ED1 : 00;
1ED2 : 00;
1ED3 : 00;
1ED4 : 00;
1ED5 : 00;
1ED6 : 00;
1ED7 : 00;
1ED8 : 00;
1ED9 : 00;
1EDA : 00;
1EDB : 00;
1EDC : 00;
1EDD : 00;
1EDE : 00;
1EDF : 00;
1EE0 : 00;
1EE1 : 00;
1EE2 : 00;
1EE3 : 00;
1EE4 : 00;
1EE5 : 00;
1EE6 : 00;
1EE7 : 00;
1EE8 : 00;
1EE9 : 00;
1EEA : 00;
1EEB : 00;
1EEC : 00;
1EED : 00;
1EEE : 00;
1EEF : 00;
1EF0 : 00;
1EF1 : 00;
1EF2 : 00;
1EF3 : 00;
1EF4 : 00;
1EF5 : 00;
1EF6 : 00;
1EF7 : 00;
1EF8 : 00;
1EF9 : 00;
1EFA : 00;
1EFB : 00;
1EFC : 00;
1EFD : 00;
1EFE : 00;
1EFF : 00;
1F00 : 00;
1F01 : 00;
1F02 : 00;
1F03 : 00;
1F04 : 00;
1F05 : 00;
1F06 : 00;
1F07 : 00;
1F08 : 00;
1F09 : 00;
1F0A : 00;
1F0B : 00;
1F0C : 00;
1F0D : 00;
1F0E : 00;
1F0F : 00;
1F10 : 00;
1F11 : 00;
1F12 : 00;
1F13 : 00;
1F14 : 00;
1F15 : 00;
1F16 : 00;
1F17 : 00;
1F18 : 00;
1F19 : 00;
1F1A : 00;
1F1B : 00;
1F1C : 00;
1F1D : 00;
1F1E : 00;
1F1F : 00;
1F20 : 00;
1F21 : 00;
1F22 : 00;
1F23 : 00;
1F24 : 00;
1F25 : 00;
1F26 : 00;
1F27 : 00;
1F28 : 00;
1F29 : 00;
1F2A : 00;
1F2B : 00;
1F2C : 00;
1F2D : 00;
1F2E : 00;
1F2F : 00;
1F30 : 00;
1F31 : 00;
1F32 : 00;
1F33 : 00;
1F34 : 00;
1F35 : 00;
1F36 : 00;
1F37 : 00;
1F38 : 00;
1F39 : 00;
1F3A : 00;
1F3B : 00;
1F3C : 00;
1F3D : 00;
1F3E : 00;
1F3F : 00;
1F40 : 00;
1F41 : 00;
1F42 : 00;
1F43 : 00;
1F44 : 00;
1F45 : 00;
1F46 : 00;
1F47 : 00;
1F48 : 00;
1F49 : 00;
1F4A : 00;
1F4B : 00;
1F4C : 00;
1F4D : 00;
1F4E : 00;
1F4F : 00;
1F50 : 00;
1F51 : 00;
1F52 : 00;
1F53 : 00;
1F54 : 00;
1F55 : 00;
1F56 : 00;
1F57 : 00;
1F58 : 00;
1F59 : 00;
1F5A : 00;
1F5B : 00;
1F5C : 00;
1F5D : 00;
1F5E : 00;
1F5F : 00;
1F60 : 00;
1F61 : 00;
1F62 : 00;
1F63 : 00;
1F64 : 00;
1F65 : 00;
1F66 : 00;
1F67 : 00;
1F68 : 00;
1F69 : 00;
1F6A : 00;
1F6B : 00;
1F6C : 00;
1F6D : 00;
1F6E : 00;
1F6F : 00;
1F70 : 00;
1F71 : 00;
1F72 : 00;
1F73 : 00;
1F74 : 00;
1F75 : 00;
1F76 : 00;
1F77 : 00;
1F78 : 00;
1F79 : 00;
1F7A : 00;
1F7B : 00;
1F7C : 00;
1F7D : 00;
1F7E : 00;
1F7F : 00;
1F80 : 00;
1F81 : 00;
1F82 : 00;
1F83 : 00;
1F84 : 00;
1F85 : 00;
1F86 : 00;
1F87 : 00;
1F88 : 00;
1F89 : 00;
1F8A : 00;
1F8B : 00;
1F8C : 00;
1F8D : 00;
1F8E : 00;
1F8F : 00;
1F90 : 00;
1F91 : 00;
1F92 : 00;
1F93 : 00;
1F94 : 00;
1F95 : 00;
1F96 : 00;
1F97 : 00;
1F98 : 00;
1F99 : 00;
1F9A : 00;
1F9B : 00;
1F9C : 00;
1F9D : 00;
1F9E : 00;
1F9F : 00;
1FA0 : 00;
1FA1 : 00;
1FA2 : 00;
1FA3 : 00;
1FA4 : 00;
1FA5 : 00;
1FA6 : 00;
1FA7 : 00;
1FA8 : 00;
1FA9 : 00;
1FAA : 00;
1FAB : 00;
1FAC : 00;
1FAD : 00;
1FAE : 00;
1FAF : 00;
1FB0 : 00;
1FB1 : 00;
1FB2 : 00;
1FB3 : 00;
1FB4 : 00;
1FB5 : 00;
1FB6 : 00;
1FB7 : 00;
1FB8 : 00;
1FB9 : 00;
1FBA : 00;
1FBB : 00;
1FBC : 00;
1FBD : 00;
1FBE : 00;
1FBF : 00;
1FC0 : 00;
1FC1 : 00;
1FC2 : 00;
1FC3 : 00;
1FC4 : 00;
1FC5 : 00;
1FC6 : 00;
1FC7 : 00;
1FC8 : 00;
1FC9 : 00;
1FCA : 00;
1FCB : 00;
1FCC : 00;
1FCD : 00;
1FCE : 00;
1FCF : 00;
1FD0 : 00;
1FD1 : 00;
1FD2 : 00;
1FD3 : 00;
1FD4 : 00;
1FD5 : 00;
1FD6 : 00;
1FD7 : 00;
1FD8 : 00;
1FD9 : 00;
1FDA : 00;
1FDB : 00;
1FDC : 00;
1FDD : 00;
1FDE : 00;
1FDF : 00;
1FE0 : 00;
1FE1 : 00;
1FE2 : 00;
1FE3 : 00;
1FE4 : 00;
1FE5 : 00;
1FE6 : 00;
1FE7 : 00;
1FE8 : 00;
1FE9 : 00;
1FEA : 00;
1FEB : 00;
1FEC : 00;
1FED : 00;
1FEE : 00;
1FEF : 00;
1FF0 : 00;
1FF1 : 00;
1FF2 : 00;
1FF3 : 00;
1FF4 : 00;
1FF5 : 00;
1FF6 : 00;
1FF7 : 00;
1FF8 : 00;
1FF9 : 00;
1FFA : 00;
1FFB : 00;
1FFC : 00;
1FFD : 00;
1FFE : 00;
1FFF : 00;
END;