DEPTH=8192;
WIDTH=8;
ADDRESS_RADIX=HEX;
DATA_RADIX=HEX;
CONTENT
BEGIN
   0 : 00;
   1 : 00;
   2 : 00;
   3 : 00;
   4 : 00;
   5 : 00;
   6 : 00;
   7 : 00;
   8 : 00;
   9 : 00;
   A : 00;
   B : 00;
   C : 00;
   D : 00;
   E : 00;
   F : 00;
  10 : 00;
  11 : 38;
  12 : 7c;
  13 : fe;
  14 : fe;
  15 : fe;
  16 : 7c;
  17 : 38;
  18 : 00;
  19 : 38;
  1A : 7c;
  1B : fe;
  1C : fe;
  1D : fe;
  1E : 7c;
  1F : 38;
  20 : 00;
  21 : 00;
  22 : 00;
  23 : 00;
  24 : 00;
  25 : 00;
  26 : 00;
  27 : 00;
  28 : 00;
  29 : 00;
  2A : 00;
  2B : 00;
  2C : 00;
  2D : 00;
  2E : 00;
  2F : 00;
  30 : 00;
  31 : 00;
  32 : 00;
  33 : 18;
  34 : 18;
  35 : 00;
  36 : 00;
  37 : 00;
  38 : 00;
  39 : 00;
  3A : 00;
  3B : 18;
  3C : 18;
  3D : 00;
  3E : 00;
  3F : 00;
  40 : 00;
  41 : 00;
  42 : 00;
  43 : 00;
  44 : 00;
  45 : 00;
  46 : 00;
  47 : 00;
  48 : ff;
  49 : ff;
  4A : ff;
  4B : ff;
  4C : ff;
  4D : ff;
  4E : ff;
  4F : ff;
  50 : 00;
  51 : 00;
  52 : 00;
  53 : 00;
  54 : 00;
  55 : 00;
  56 : 00;
  57 : 00;
  58 : 0f;
  59 : 0f;
  5A : 0f;
  5B : 0f;
  5C : 0f;
  5D : 0f;
  5E : 0f;
  5F : 0f;
  60 : 00;
  61 : 00;
  62 : 00;
  63 : 00;
  64 : 00;
  65 : 00;
  66 : 00;
  67 : 00;
  68 : f0;
  69 : f0;
  6A : f0;
  6B : f0;
  6C : f0;
  6D : f0;
  6E : f0;
  6F : f0;
  70 : 00;
  71 : 00;
  72 : 00;
  73 : 00;
  74 : 00;
  75 : 00;
  76 : 00;
  77 : 00;
  78 : 00;
  79 : 00;
  7A : 00;
  7B : 00;
  7C : 00;
  7D : 00;
  7E : 00;
  7F : 00;
  80 : 00;
  81 : 00;
  82 : 00;
  83 : 00;
  84 : 00;
  85 : 00;
  86 : 00;
  87 : 00;
  88 : 00;
  89 : 00;
  8A : 00;
  8B : 00;
  8C : 00;
  8D : 00;
  8E : 00;
  8F : 00;
  90 : 00;
  91 : 00;
  92 : 00;
  93 : 18;
  94 : 18;
  95 : 00;
  96 : 00;
  97 : 00;
  98 : 00;
  99 : 00;
  9A : 00;
  9B : 18;
  9C : 18;
  9D : 00;
  9E : 00;
  9F : 00;
  A0 : 00;
  A1 : 00;
  A2 : 00;
  A3 : 00;
  A4 : 00;
  A5 : 00;
  A6 : 00;
  A7 : 00;
  A8 : 00;
  A9 : 00;
  AA : 00;
  AB : 00;
  AC : 00;
  AD : 00;
  AE : 00;
  AF : 00;
  B0 : 00;
  B1 : 00;
  B2 : 00;
  B3 : 00;
  B4 : 00;
  B5 : 00;
  B6 : 00;
  B7 : 00;
  B8 : 00;
  B9 : 00;
  BA : 00;
  BB : 00;
  BC : 00;
  BD : 00;
  BE : 00;
  BF : 00;
  C0 : 00;
  C1 : 00;
  C2 : 00;
  C3 : 00;
  C4 : 00;
  C5 : 00;
  C6 : 00;
  C7 : 00;
  C8 : 00;
  C9 : 00;
  CA : 00;
  CB : 00;
  CC : 00;
  CD : 00;
  CE : 00;
  CF : 00;
  D0 : 00;
  D1 : 00;
  D2 : 00;
  D3 : 00;
  D4 : 00;
  D5 : 00;
  D6 : 00;
  D7 : 00;
  D8 : 00;
  D9 : 00;
  DA : 00;
  DB : 00;
  DC : 00;
  DD : 00;
  DE : 00;
  DF : 00;
  E0 : fa;
  E1 : 23;
  E2 : 22;
  E3 : 22;
  E4 : 00;
  E5 : 00;
  E6 : 00;
  E7 : 00;
  E8 : 00;
  E9 : 00;
  EA : 00;
  EB : 00;
  EC : 00;
  ED : 00;
  EE : 00;
  EF : 00;
  F0 : 20;
  F1 : 60;
  F2 : a0;
  F3 : 20;
  F4 : 00;
  F5 : 00;
  F6 : 00;
  F7 : 00;
  F8 : 00;
  F9 : 00;
  FA : 00;
  FB : 00;
  FC : 00;
  FD : 00;
  FE : 00;
  FF : 00;
 100 : 00;
 101 : 00;
 102 : ff;
 103 : 00;
 104 : 00;
 105 : ff;
 106 : 00;
 107 : 00;
 108 : 00;
 109 : 00;
 10A : 00;
 10B : 00;
 10C : 00;
 10D : 00;
 10E : 00;
 10F : 00;
 110 : 24;
 111 : 24;
 112 : 24;
 113 : 24;
 114 : 24;
 115 : 24;
 116 : 24;
 117 : 24;
 118 : 00;
 119 : 00;
 11A : 00;
 11B : 00;
 11C : 00;
 11D : 00;
 11E : 00;
 11F : 00;
 120 : 24;
 121 : 24;
 122 : c3;
 123 : 00;
 124 : 00;
 125 : ff;
 126 : 00;
 127 : 00;
 128 : 00;
 129 : 00;
 12A : 00;
 12B : 00;
 12C : 00;
 12D : 00;
 12E : 00;
 12F : 00;
 130 : 00;
 131 : 00;
 132 : ff;
 133 : 00;
 134 : 00;
 135 : c3;
 136 : 24;
 137 : 24;
 138 : 00;
 139 : 00;
 13A : 00;
 13B : 00;
 13C : 00;
 13D : 00;
 13E : 00;
 13F : 00;
 140 : 24;
 141 : 24;
 142 : c4;
 143 : 04;
 144 : 04;
 145 : c4;
 146 : 24;
 147 : 24;
 148 : 00;
 149 : 00;
 14A : 00;
 14B : 00;
 14C : 00;
 14D : 00;
 14E : 00;
 14F : 00;
 150 : 24;
 151 : 24;
 152 : 23;
 153 : 20;
 154 : 20;
 155 : 23;
 156 : 24;
 157 : 24;
 158 : 00;
 159 : 00;
 15A : 00;
 15B : 00;
 15C : 00;
 15D : 00;
 15E : 00;
 15F : 00;
 160 : 00;
 161 : 00;
 162 : 0f;
 163 : 10;
 164 : f0;
 165 : 0f;
 166 : 00;
 167 : 00;
 168 : 00;
 169 : 00;
 16A : 00;
 16B : 00;
 16C : 00;
 16D : 00;
 16E : 00;
 16F : 00;
 170 : 00;
 171 : 00;
 172 : f0;
 173 : 08;
 174 : 0f;
 175 : f0;
 176 : 00;
 177 : 00;
 178 : 00;
 179 : 00;
 17A : 00;
 17B : 00;
 17C : 00;
 17D : 00;
 17E : 00;
 17F : 00;
 180 : 00;
 181 : 00;
 182 : f0;
 183 : 08;
 184 : 08;
 185 : f0;
 186 : 00;
 187 : 00;
 188 : 00;
 189 : 00;
 18A : 00;
 18B : 00;
 18C : 00;
 18D : 00;
 18E : 00;
 18F : 00;
 190 : 00;
 191 : 00;
 192 : 0f;
 193 : 10;
 194 : 10;
 195 : 0f;
 196 : 00;
 197 : 00;
 198 : 00;
 199 : 00;
 19A : 00;
 19B : 00;
 19C : 00;
 19D : 00;
 19E : 00;
 19F : 00;
 1A0 : 24;
 1A1 : 24;
 1A2 : 24;
 1A3 : 24;
 1A4 : 18;
 1A5 : 00;
 1A6 : 00;
 1A7 : 00;
 1A8 : 00;
 1A9 : 00;
 1AA : 00;
 1AB : 00;
 1AC : 00;
 1AD : 00;
 1AE : 00;
 1AF : 00;
 1B0 : 00;
 1B1 : 00;
 1B2 : 00;
 1B3 : 18;
 1B4 : 24;
 1B5 : 24;
 1B6 : 24;
 1B7 : 24;
 1B8 : 00;
 1B9 : 00;
 1BA : 00;
 1BB : 00;
 1BC : 00;
 1BD : 00;
 1BE : 00;
 1BF : 00;
 1C0 : 24;
 1C1 : 24;
 1C2 : c4;
 1C3 : 04;
 1C4 : 08;
 1C5 : f0;
 1C6 : 00;
 1C7 : 00;
 1C8 : 00;
 1C9 : 00;
 1CA : 00;
 1CB : 00;
 1CC : 00;
 1CD : 00;
 1CE : 00;
 1CF : 00;
 1D0 : 00;
 1D1 : 00;
 1D2 : f0;
 1D3 : 08;
 1D4 : 04;
 1D5 : c4;
 1D6 : 24;
 1D7 : 24;
 1D8 : 00;
 1D9 : 00;
 1DA : 00;
 1DB : 00;
 1DC : 00;
 1DD : 00;
 1DE : 00;
 1DF : 00;
 1E0 : 24;
 1E1 : 24;
 1E2 : 23;
 1E3 : 20;
 1E4 : 10;
 1E5 : 0f;
 1E6 : 00;
 1E7 : 00;
 1E8 : 00;
 1E9 : 00;
 1EA : 00;
 1EB : 00;
 1EC : 00;
 1ED : 00;
 1EE : 00;
 1EF : 00;
 1F0 : 00;
 1F1 : 00;
 1F2 : 0f;
 1F3 : 10;
 1F4 : 20;
 1F5 : 23;
 1F6 : 24;
 1F7 : 24;
 1F8 : 00;
 1F9 : 00;
 1FA : 00;
 1FB : 00;
 1FC : 00;
 1FD : 00;
 1FE : 00;
 1FF : 00;
 200 : 00;
 201 : 00;
 202 : 00;
 203 : 00;
 204 : 00;
 205 : 00;
 206 : 00;
 207 : 00;
 208 : 00;
 209 : 00;
 20A : 00;
 20B : 00;
 20C : 00;
 20D : 00;
 20E : 00;
 20F : 00;
 210 : 00;
 211 : 00;
 212 : f0;
 213 : 08;
 214 : 08;
 215 : f0;
 216 : 00;
 217 : 00;
 218 : 0f;
 219 : 0f;
 21A : 0f;
 21B : 07;
 21C : 07;
 21D : 0f;
 21E : 0f;
 21F : 0f;
 220 : 00;
 221 : 00;
 222 : 0f;
 223 : 10;
 224 : 10;
 225 : 0f;
 226 : 00;
 227 : 00;
 228 : f0;
 229 : f0;
 22A : f0;
 22B : e0;
 22C : e0;
 22D : f0;
 22E : f0;
 22F : f0;
 230 : ff;
 231 : ff;
 232 : e1;
 233 : e1;
 234 : e1;
 235 : e1;
 236 : e1;
 237 : e1;
 238 : ff;
 239 : ff;
 23A : e1;
 23B : e1;
 23C : e1;
 23D : e1;
 23E : e1;
 23F : e1;
 240 : 87;
 241 : c7;
 242 : c0;
 243 : c7;
 244 : cf;
 245 : ce;
 246 : cf;
 247 : c7;
 248 : 87;
 249 : c7;
 24A : c0;
 24B : c7;
 24C : cf;
 24D : ce;
 24E : cf;
 24F : c7;
 250 : f8;
 251 : fc;
 252 : 1c;
 253 : fc;
 254 : fc;
 255 : 1c;
 256 : fc;
 257 : fc;
 258 : f8;
 259 : fc;
 25A : 1c;
 25B : fc;
 25C : fc;
 25D : 1c;
 25E : fc;
 25F : fc;
 260 : ff;
 261 : ff;
 262 : e7;
 263 : e7;
 264 : e7;
 265 : e7;
 266 : e7;
 267 : e7;
 268 : ff;
 269 : ff;
 26A : e7;
 26B : e7;
 26C : e7;
 26D : e7;
 26E : e7;
 26F : e7;
 270 : f0;
 271 : f9;
 272 : 39;
 273 : 39;
 274 : 39;
 275 : 39;
 276 : 39;
 277 : 38;
 278 : f0;
 279 : f9;
 27A : 39;
 27B : 39;
 27C : 39;
 27D : 39;
 27E : 39;
 27F : 38;
 280 : ff;
 281 : ff;
 282 : c0;
 283 : c0;
 284 : c0;
 285 : c0;
 286 : ff;
 287 : ff;
 288 : ff;
 289 : ff;
 28A : c0;
 28B : c0;
 28C : c0;
 28D : c0;
 28E : ff;
 28F : ff;
 290 : 1f;
 291 : 3f;
 292 : 30;
 293 : 30;
 294 : 30;
 295 : 30;
 296 : 3f;
 297 : 1f;
 298 : 1f;
 299 : 3f;
 29A : 30;
 29B : 30;
 29C : 30;
 29D : 30;
 29E : 3f;
 29F : 1f;
 2A0 : e2;
 2A1 : f2;
 2A2 : 72;
 2A3 : 72;
 2A4 : 71;
 2A5 : 70;
 2A6 : f0;
 2A7 : e0;
 2A8 : e2;
 2A9 : f2;
 2AA : 72;
 2AB : 72;
 2AC : 71;
 2AD : 70;
 2AE : f0;
 2AF : e0;
 2B0 : f4;
 2B1 : 94;
 2B2 : e4;
 2B3 : 94;
 2B4 : 08;
 2B5 : f0;
 2B6 : 00;
 2B7 : 00;
 2B8 : f4;
 2B9 : 94;
 2BA : e4;
 2BB : 94;
 2BC : 08;
 2BD : f0;
 2BE : 00;
 2BF : 00;
 2C0 : 00;
 2C1 : 00;
 2C2 : 00;
 2C3 : 00;
 2C4 : ff;
 2C5 : 00;
 2C6 : 00;
 2C7 : 00;
 2C8 : 00;
 2C9 : 00;
 2CA : 00;
 2CB : 00;
 2CC : 00;
 2CD : 00;
 2CE : 00;
 2CF : 00;
 2D0 : 00;
 2D1 : 00;
 2D2 : 00;
 2D3 : 00;
 2D4 : 00;
 2D5 : 00;
 2D6 : 00;
 2D7 : 00;
 2D8 : ff;
 2D9 : ff;
 2DA : ff;
 2DB : ff;
 2DC : ff;
 2DD : ff;
 2DE : ff;
 2DF : ff;
 2E0 : 00;
 2E1 : 00;
 2E2 : 00;
 2E3 : 18;
 2E4 : 18;
 2E5 : 00;
 2E6 : 00;
 2E7 : 00;
 2E8 : 00;
 2E9 : 00;
 2EA : 00;
 2EB : 00;
 2EC : 00;
 2ED : 00;
 2EE : 00;
 2EF : 00;
 2F0 : 00;
 2F1 : 00;
 2F2 : 00;
 2F3 : 00;
 2F4 : 00;
 2F5 : 00;
 2F6 : 00;
 2F7 : 00;
 2F8 : 00;
 2F9 : 00;
 2FA : 00;
 2FB : 18;
 2FC : 18;
 2FD : 00;
 2FE : 00;
 2FF : 00;
 300 : 1c;
 301 : 26;
 302 : 63;
 303 : 63;
 304 : 63;
 305 : 32;
 306 : 1c;
 307 : 00;
 308 : 00;
 309 : 00;
 30A : 00;
 30B : 00;
 30C : 00;
 30D : 00;
 30E : 00;
 30F : 00;
 310 : 0c;
 311 : 1c;
 312 : 0c;
 313 : 0c;
 314 : 0c;
 315 : 0c;
 316 : 3f;
 317 : 00;
 318 : 00;
 319 : 00;
 31A : 00;
 31B : 00;
 31C : 00;
 31D : 00;
 31E : 00;
 31F : 00;
 320 : 3e;
 321 : 63;
 322 : 07;
 323 : 1e;
 324 : 3c;
 325 : 70;
 326 : 7f;
 327 : 00;
 328 : 00;
 329 : 00;
 32A : 00;
 32B : 00;
 32C : 00;
 32D : 00;
 32E : 00;
 32F : 00;
 330 : 3f;
 331 : 06;
 332 : 0c;
 333 : 1e;
 334 : 03;
 335 : 63;
 336 : 3e;
 337 : 00;
 338 : 00;
 339 : 00;
 33A : 00;
 33B : 00;
 33C : 00;
 33D : 00;
 33E : 00;
 33F : 00;
 340 : 0e;
 341 : 1e;
 342 : 36;
 343 : 66;
 344 : 7f;
 345 : 06;
 346 : 06;
 347 : 00;
 348 : 00;
 349 : 00;
 34A : 00;
 34B : 00;
 34C : 00;
 34D : 00;
 34E : 00;
 34F : 00;
 350 : 7e;
 351 : 60;
 352 : 7e;
 353 : 03;
 354 : 03;
 355 : 63;
 356 : 3e;
 357 : 00;
 358 : 00;
 359 : 00;
 35A : 00;
 35B : 00;
 35C : 00;
 35D : 00;
 35E : 00;
 35F : 00;
 360 : 1e;
 361 : 30;
 362 : 60;
 363 : 7e;
 364 : 63;
 365 : 63;
 366 : 3e;
 367 : 00;
 368 : 00;
 369 : 00;
 36A : 00;
 36B : 00;
 36C : 00;
 36D : 00;
 36E : 00;
 36F : 00;
 370 : 7f;
 371 : 63;
 372 : 06;
 373 : 0c;
 374 : 18;
 375 : 18;
 376 : 18;
 377 : 00;
 378 : 00;
 379 : 00;
 37A : 00;
 37B : 00;
 37C : 00;
 37D : 00;
 37E : 00;
 37F : 00;
 380 : 3c;
 381 : 62;
 382 : 72;
 383 : 3c;
 384 : 4f;
 385 : 43;
 386 : 3e;
 387 : 00;
 388 : 00;
 389 : 00;
 38A : 00;
 38B : 00;
 38C : 00;
 38D : 00;
 38E : 00;
 38F : 00;
 390 : 3e;
 391 : 63;
 392 : 63;
 393 : 3f;
 394 : 03;
 395 : 06;
 396 : 3c;
 397 : 00;
 398 : 00;
 399 : 00;
 39A : 00;
 39B : 00;
 39C : 00;
 39D : 00;
 39E : 00;
 39F : 00;
 3A0 : 00;
 3A1 : 00;
 3A2 : 00;
 3A3 : 7e;
 3A4 : 00;
 3A5 : 00;
 3A6 : 00;
 3A7 : 00;
 3A8 : 00;
 3A9 : 00;
 3AA : 00;
 3AB : 00;
 3AC : 00;
 3AD : 00;
 3AE : 00;
 3AF : 00;
 3B0 : 00;
 3B1 : 02;
 3B2 : 04;
 3B3 : 08;
 3B4 : 10;
 3B5 : 20;
 3B6 : 00;
 3B7 : 00;
 3B8 : 00;
 3B9 : 00;
 3BA : 00;
 3BB : 00;
 3BC : 00;
 3BD : 00;
 3BE : 00;
 3BF : 00;
 3C0 : 00;
 3C1 : 07;
 3C2 : 1f;
 3C3 : 3f;
 3C4 : 3f;
 3C5 : 0f;
 3C6 : 03;
 3C7 : 00;
 3C8 : 00;
 3C9 : 07;
 3CA : 1f;
 3CB : 3f;
 3CC : 3f;
 3CD : 0f;
 3CE : 03;
 3CF : 00;
 3D0 : 00;
 3D1 : c0;
 3D2 : f0;
 3D3 : f8;
 3D4 : f8;
 3D5 : fc;
 3D6 : fc;
 3D7 : fc;
 3D8 : 00;
 3D9 : c0;
 3DA : f0;
 3DB : f8;
 3DC : f8;
 3DD : fc;
 3DE : fc;
 3DF : fc;
 3E0 : 00;
 3E1 : 03;
 3E2 : 0f;
 3E3 : 3f;
 3E4 : 3f;
 3E5 : 1f;
 3E6 : 07;
 3E7 : 00;
 3E8 : 00;
 3E9 : 03;
 3EA : 0f;
 3EB : 3f;
 3EC : 3f;
 3ED : 1f;
 3EE : 07;
 3EF : 00;
 3F0 : fc;
 3F1 : fc;
 3F2 : fc;
 3F3 : f8;
 3F4 : f8;
 3F5 : f0;
 3F6 : c0;
 3F7 : 00;
 3F8 : fc;
 3F9 : fc;
 3FA : fc;
 3FB : f8;
 3FC : f8;
 3FD : f0;
 3FE : c0;
 3FF : 00;
 400 : 00;
 401 : 00;
 402 : 00;
 403 : 00;
 404 : 00;
 405 : 00;
 406 : 00;
 407 : 00;
 408 : 00;
 409 : 00;
 40A : 00;
 40B : 00;
 40C : 00;
 40D : 00;
 40E : 00;
 40F : 00;
 410 : 1c;
 411 : 36;
 412 : 63;
 413 : 63;
 414 : 7f;
 415 : 63;
 416 : 63;
 417 : 00;
 418 : 00;
 419 : 00;
 41A : 00;
 41B : 00;
 41C : 00;
 41D : 00;
 41E : 00;
 41F : 00;
 420 : 7e;
 421 : 63;
 422 : 63;
 423 : 7e;
 424 : 63;
 425 : 63;
 426 : 7e;
 427 : 00;
 428 : 00;
 429 : 00;
 42A : 00;
 42B : 00;
 42C : 00;
 42D : 00;
 42E : 00;
 42F : 00;
 430 : 1e;
 431 : 33;
 432 : 60;
 433 : 60;
 434 : 60;
 435 : 33;
 436 : 1e;
 437 : 00;
 438 : 00;
 439 : 00;
 43A : 00;
 43B : 00;
 43C : 00;
 43D : 00;
 43E : 00;
 43F : 00;
 440 : 7c;
 441 : 66;
 442 : 63;
 443 : 63;
 444 : 63;
 445 : 66;
 446 : 7c;
 447 : 00;
 448 : 00;
 449 : 00;
 44A : 00;
 44B : 00;
 44C : 00;
 44D : 00;
 44E : 00;
 44F : 00;
 450 : 7f;
 451 : 60;
 452 : 60;
 453 : 7e;
 454 : 60;
 455 : 60;
 456 : 7f;
 457 : 00;
 458 : 00;
 459 : 00;
 45A : 00;
 45B : 00;
 45C : 00;
 45D : 00;
 45E : 00;
 45F : 00;
 460 : 7f;
 461 : 60;
 462 : 60;
 463 : 7e;
 464 : 60;
 465 : 60;
 466 : 60;
 467 : 00;
 468 : 00;
 469 : 00;
 46A : 00;
 46B : 00;
 46C : 00;
 46D : 00;
 46E : 00;
 46F : 00;
 470 : 1f;
 471 : 30;
 472 : 60;
 473 : 67;
 474 : 63;
 475 : 33;
 476 : 1f;
 477 : 00;
 478 : 00;
 479 : 00;
 47A : 00;
 47B : 00;
 47C : 00;
 47D : 00;
 47E : 00;
 47F : 00;
 480 : 63;
 481 : 63;
 482 : 63;
 483 : 7f;
 484 : 63;
 485 : 63;
 486 : 63;
 487 : 00;
 488 : 00;
 489 : 00;
 48A : 00;
 48B : 00;
 48C : 00;
 48D : 00;
 48E : 00;
 48F : 00;
 490 : 3f;
 491 : 0c;
 492 : 0c;
 493 : 0c;
 494 : 0c;
 495 : 0c;
 496 : 3f;
 497 : 00;
 498 : 00;
 499 : 00;
 49A : 00;
 49B : 00;
 49C : 00;
 49D : 00;
 49E : 00;
 49F : 00;
 4A0 : 03;
 4A1 : 03;
 4A2 : 03;
 4A3 : 03;
 4A4 : 03;
 4A5 : 63;
 4A6 : 3e;
 4A7 : 00;
 4A8 : 00;
 4A9 : 00;
 4AA : 00;
 4AB : 00;
 4AC : 00;
 4AD : 00;
 4AE : 00;
 4AF : 00;
 4B0 : 63;
 4B1 : 66;
 4B2 : 6c;
 4B3 : 78;
 4B4 : 7c;
 4B5 : 66;
 4B6 : 63;
 4B7 : 00;
 4B8 : 00;
 4B9 : 00;
 4BA : 00;
 4BB : 00;
 4BC : 00;
 4BD : 00;
 4BE : 00;
 4BF : 00;
 4C0 : 60;
 4C1 : 60;
 4C2 : 60;
 4C3 : 60;
 4C4 : 60;
 4C5 : 60;
 4C6 : 7f;
 4C7 : 00;
 4C8 : 00;
 4C9 : 00;
 4CA : 00;
 4CB : 00;
 4CC : 00;
 4CD : 00;
 4CE : 00;
 4CF : 00;
 4D0 : 63;
 4D1 : 77;
 4D2 : 7f;
 4D3 : 7f;
 4D4 : 6b;
 4D5 : 63;
 4D6 : 63;
 4D7 : 00;
 4D8 : 00;
 4D9 : 00;
 4DA : 00;
 4DB : 00;
 4DC : 00;
 4DD : 00;
 4DE : 00;
 4DF : 00;
 4E0 : 63;
 4E1 : 73;
 4E2 : 7b;
 4E3 : 7f;
 4E4 : 6f;
 4E5 : 67;
 4E6 : 63;
 4E7 : 00;
 4E8 : 00;
 4E9 : 00;
 4EA : 00;
 4EB : 00;
 4EC : 00;
 4ED : 00;
 4EE : 00;
 4EF : 00;
 4F0 : 3e;
 4F1 : 63;
 4F2 : 63;
 4F3 : 63;
 4F4 : 63;
 4F5 : 63;
 4F6 : 3e;
 4F7 : 00;
 4F8 : 00;
 4F9 : 00;
 4FA : 00;
 4FB : 00;
 4FC : 00;
 4FD : 00;
 4FE : 00;
 4FF : 00;
 500 : 7e;
 501 : 63;
 502 : 63;
 503 : 63;
 504 : 7e;
 505 : 60;
 506 : 60;
 507 : 00;
 508 : 00;
 509 : 00;
 50A : 00;
 50B : 00;
 50C : 00;
 50D : 00;
 50E : 00;
 50F : 00;
 510 : 3e;
 511 : 63;
 512 : 63;
 513 : 63;
 514 : 6f;
 515 : 66;
 516 : 3d;
 517 : 00;
 518 : 00;
 519 : 00;
 51A : 00;
 51B : 00;
 51C : 00;
 51D : 00;
 51E : 00;
 51F : 00;
 520 : 7e;
 521 : 63;
 522 : 63;
 523 : 67;
 524 : 7c;
 525 : 6e;
 526 : 67;
 527 : 00;
 528 : 00;
 529 : 00;
 52A : 00;
 52B : 00;
 52C : 00;
 52D : 00;
 52E : 00;
 52F : 00;
 530 : 3c;
 531 : 66;
 532 : 60;
 533 : 3e;
 534 : 03;
 535 : 63;
 536 : 3e;
 537 : 00;
 538 : 00;
 539 : 00;
 53A : 00;
 53B : 00;
 53C : 00;
 53D : 00;
 53E : 00;
 53F : 00;
 540 : 3f;
 541 : 0c;
 542 : 0c;
 543 : 0c;
 544 : 0c;
 545 : 0c;
 546 : 0c;
 547 : 00;
 548 : 00;
 549 : 00;
 54A : 00;
 54B : 00;
 54C : 00;
 54D : 00;
 54E : 00;
 54F : 00;
 550 : 63;
 551 : 63;
 552 : 63;
 553 : 63;
 554 : 63;
 555 : 63;
 556 : 3e;
 557 : 00;
 558 : 00;
 559 : 00;
 55A : 00;
 55B : 00;
 55C : 00;
 55D : 00;
 55E : 00;
 55F : 00;
 560 : 63;
 561 : 63;
 562 : 63;
 563 : 77;
 564 : 3e;
 565 : 1c;
 566 : 08;
 567 : 00;
 568 : 00;
 569 : 00;
 56A : 00;
 56B : 00;
 56C : 00;
 56D : 00;
 56E : 00;
 56F : 00;
 570 : 63;
 571 : 63;
 572 : 6b;
 573 : 7f;
 574 : 7f;
 575 : 77;
 576 : 63;
 577 : 00;
 578 : 00;
 579 : 00;
 57A : 00;
 57B : 00;
 57C : 00;
 57D : 00;
 57E : 00;
 57F : 00;
 580 : 63;
 581 : 77;
 582 : 3e;
 583 : 1c;
 584 : 3e;
 585 : 77;
 586 : 63;
 587 : 00;
 588 : 00;
 589 : 00;
 58A : 00;
 58B : 00;
 58C : 00;
 58D : 00;
 58E : 00;
 58F : 00;
 590 : 33;
 591 : 33;
 592 : 33;
 593 : 1e;
 594 : 0c;
 595 : 0c;
 596 : 0c;
 597 : 00;
 598 : 00;
 599 : 00;
 59A : 00;
 59B : 00;
 59C : 00;
 59D : 00;
 59E : 00;
 59F : 00;
 5A0 : 7f;
 5A1 : 07;
 5A2 : 0e;
 5A3 : 1c;
 5A4 : 38;
 5A5 : 70;
 5A6 : 7f;
 5A7 : 00;
 5A8 : 00;
 5A9 : 00;
 5AA : 00;
 5AB : 00;
 5AC : 00;
 5AD : 00;
 5AE : 00;
 5AF : 00;
 5B0 : 00;
 5B1 : 00;
 5B2 : 00;
 5B3 : 00;
 5B4 : 00;
 5B5 : 30;
 5B6 : 30;
 5B7 : 00;
 5B8 : 00;
 5B9 : 00;
 5BA : 00;
 5BB : 00;
 5BC : 00;
 5BD : 00;
 5BE : 00;
 5BF : 00;
 5C0 : c0;
 5C1 : f0;
 5C2 : fc;
 5C3 : ff;
 5C4 : fc;
 5C5 : f0;
 5C6 : c0;
 5C7 : 00;
 5C8 : 00;
 5C9 : 00;
 5CA : 00;
 5CB : 00;
 5CC : 00;
 5CD : 00;
 5CE : 00;
 5CF : 00;
 5D0 : 3c;
 5D1 : 42;
 5D2 : 99;
 5D3 : a1;
 5D4 : a1;
 5D5 : 99;
 5D6 : 42;
 5D7 : 3c;
 5D8 : 00;
 5D9 : 00;
 5DA : 00;
 5DB : 00;
 5DC : 00;
 5DD : 00;
 5DE : 00;
 5DF : 00;
 5E0 : 00;
 5E1 : 00;
 5E2 : 10;
 5E3 : 10;
 5E4 : 10;
 5E5 : 10;
 5E6 : 00;
 5E7 : 00;
 5E8 : 00;
 5E9 : 00;
 5EA : 10;
 5EB : 10;
 5EC : 10;
 5ED : 10;
 5EE : 00;
 5EF : 00;
 5F0 : 36;
 5F1 : 36;
 5F2 : 12;
 5F3 : 00;
 5F4 : 00;
 5F5 : 00;
 5F6 : 00;
 5F7 : 00;
 5F8 : 00;
 5F9 : 00;
 5FA : 00;
 5FB : 00;
 5FC : 00;
 5FD : 00;
 5FE : 00;
 5FF : 00;
 600 : 00;
 601 : 00;
 602 : 00;
 603 : 00;
 604 : 00;
 605 : 01;
 606 : 1e;
 607 : 3b;
 608 : 00;
 609 : 00;
 60A : 00;
 60B : 00;
 60C : 00;
 60D : 00;
 60E : 00;
 60F : 00;
 610 : 00;
 611 : 00;
 612 : 0c;
 613 : 3c;
 614 : d0;
 615 : 10;
 616 : 20;
 617 : 40;
 618 : 00;
 619 : 00;
 61A : 00;
 61B : 00;
 61C : 00;
 61D : 00;
 61E : 00;
 61F : 00;
 620 : 3e;
 621 : 2d;
 622 : 35;
 623 : 1d;
 624 : 01;
 625 : 00;
 626 : 00;
 627 : 00;
 628 : 00;
 629 : 00;
 62A : 00;
 62B : 00;
 62C : 00;
 62D : 00;
 62E : 00;
 62F : 00;
 630 : b0;
 631 : b8;
 632 : f8;
 633 : 78;
 634 : 98;
 635 : f0;
 636 : 00;
 637 : 00;
 638 : 00;
 639 : 00;
 63A : 00;
 63B : 00;
 63C : 00;
 63D : 00;
 63E : 00;
 63F : 00;
 640 : 00;
 641 : 00;
 642 : 07;
 643 : 03;
 644 : 0d;
 645 : 1e;
 646 : 17;
 647 : 1d;
 648 : 00;
 649 : 00;
 64A : 00;
 64B : 00;
 64C : 00;
 64D : 00;
 64E : 00;
 64F : 00;
 650 : 00;
 651 : 80;
 652 : 70;
 653 : e0;
 654 : d8;
 655 : bc;
 656 : 74;
 657 : dc;
 658 : 00;
 659 : 00;
 65A : 00;
 65B : 00;
 65C : 00;
 65D : 00;
 65E : 00;
 65F : 00;
 660 : 1f;
 661 : 0b;
 662 : 0f;
 663 : 05;
 664 : 03;
 665 : 01;
 666 : 00;
 667 : 00;
 668 : 00;
 669 : 00;
 66A : 00;
 66B : 00;
 66C : 00;
 66D : 00;
 66E : 00;
 66F : 00;
 670 : fc;
 671 : 68;
 672 : f8;
 673 : b0;
 674 : e0;
 675 : 80;
 676 : 00;
 677 : 00;
 678 : 00;
 679 : 00;
 67A : 00;
 67B : 00;
 67C : 00;
 67D : 00;
 67E : 00;
 67F : 00;
 680 : 00;
 681 : 00;
 682 : 00;
 683 : 00;
 684 : 00;
 685 : 00;
 686 : 00;
 687 : 00;
 688 : 00;
 689 : 00;
 68A : 00;
 68B : 01;
 68C : 01;
 68D : 0b;
 68E : 1c;
 68F : 3f;
 690 : 00;
 691 : 00;
 692 : 00;
 693 : 00;
 694 : 00;
 695 : 00;
 696 : 00;
 697 : 00;
 698 : 00;
 699 : 00;
 69A : 30;
 69B : 78;
 69C : 80;
 69D : f0;
 69E : f8;
 69F : fc;
 6A0 : 00;
 6A1 : 00;
 6A2 : 00;
 6A3 : 00;
 6A4 : 00;
 6A5 : 00;
 6A6 : 00;
 6A7 : 00;
 6A8 : 3f;
 6A9 : 3f;
 6AA : 3f;
 6AB : 1f;
 6AC : 1f;
 6AD : 07;
 6AE : 00;
 6AF : 00;
 6B0 : 00;
 6B1 : 00;
 6B2 : 00;
 6B3 : 00;
 6B4 : 00;
 6B5 : 00;
 6B6 : 00;
 6B7 : 00;
 6B8 : fc;
 6B9 : ec;
 6BA : ec;
 6BB : d8;
 6BC : f8;
 6BD : e0;
 6BE : 00;
 6BF : 00;
 6C0 : 00;
 6C1 : 00;
 6C2 : 01;
 6C3 : 1d;
 6C4 : 3e;
 6C5 : 3f;
 6C6 : 3f;
 6C7 : 3f;
 6C8 : 00;
 6C9 : 00;
 6CA : 01;
 6CB : 1d;
 6CC : 3e;
 6CD : 3f;
 6CE : 3f;
 6CF : 3f;
 6D0 : 00;
 6D1 : 80;
 6D2 : 00;
 6D3 : 70;
 6D4 : f8;
 6D5 : fc;
 6D6 : fc;
 6D7 : fc;
 6D8 : 00;
 6D9 : 80;
 6DA : 00;
 6DB : 70;
 6DC : f8;
 6DD : fc;
 6DE : fc;
 6DF : fc;
 6E0 : 3f;
 6E1 : 3f;
 6E2 : 1f;
 6E3 : 1f;
 6E4 : 0f;
 6E5 : 06;
 6E6 : 00;
 6E7 : 00;
 6E8 : 3f;
 6E9 : 3f;
 6EA : 1f;
 6EB : 1f;
 6EC : 0f;
 6ED : 06;
 6EE : 00;
 6EF : 00;
 6F0 : ec;
 6F1 : ec;
 6F2 : d8;
 6F3 : f8;
 6F4 : f0;
 6F5 : e0;
 6F6 : 00;
 6F7 : 00;
 6F8 : ec;
 6F9 : ec;
 6FA : d8;
 6FB : f8;
 6FC : f0;
 6FD : e0;
 6FE : 00;
 6FF : 00;
 700 : 00;
 701 : 04;
 702 : 03;
 703 : 00;
 704 : 01;
 705 : 07;
 706 : 0f;
 707 : 0c;
 708 : 00;
 709 : 00;
 70A : 00;
 70B : 00;
 70C : 00;
 70D : 00;
 70E : 00;
 70F : 00;
 710 : 00;
 711 : 00;
 712 : e0;
 713 : 80;
 714 : 40;
 715 : f0;
 716 : 98;
 717 : f8;
 718 : 00;
 719 : 00;
 71A : 00;
 71B : 00;
 71C : 00;
 71D : 00;
 71E : 00;
 71F : 00;
 720 : 1f;
 721 : 13;
 722 : 1f;
 723 : 0f;
 724 : 09;
 725 : 07;
 726 : 01;
 727 : 00;
 728 : 00;
 729 : 00;
 72A : 00;
 72B : 00;
 72C : 00;
 72D : 00;
 72E : 00;
 72F : 00;
 730 : e4;
 731 : 3c;
 732 : e4;
 733 : 38;
 734 : f8;
 735 : f0;
 736 : c0;
 737 : 00;
 738 : 00;
 739 : 00;
 73A : 00;
 73B : 00;
 73C : 00;
 73D : 00;
 73E : 00;
 73F : 00;
 740 : 00;
 741 : 00;
 742 : 00;
 743 : 00;
 744 : 00;
 745 : 00;
 746 : 00;
 747 : 00;
 748 : 00;
 749 : 00;
 74A : 00;
 74B : 00;
 74C : 11;
 74D : 13;
 74E : 1f;
 74F : 1f;
 750 : 00;
 751 : 00;
 752 : 00;
 753 : 00;
 754 : 00;
 755 : 00;
 756 : 00;
 757 : 00;
 758 : 00;
 759 : 00;
 75A : 00;
 75B : 80;
 75C : c4;
 75D : e4;
 75E : fc;
 75F : fc;
 760 : 00;
 761 : 00;
 762 : 00;
 763 : 00;
 764 : 00;
 765 : 00;
 766 : 00;
 767 : 00;
 768 : 1f;
 769 : 0e;
 76A : 06;
 76B : 02;
 76C : 00;
 76D : 00;
 76E : 00;
 76F : 00;
 770 : 00;
 771 : 00;
 772 : 00;
 773 : 00;
 774 : 00;
 775 : 00;
 776 : 00;
 777 : 00;
 778 : fc;
 779 : b8;
 77A : b0;
 77B : a0;
 77C : 80;
 77D : 00;
 77E : 00;
 77F : 00;
 780 : 00;
 781 : 00;
 782 : 00;
 783 : 00;
 784 : 00;
 785 : 00;
 786 : 00;
 787 : 00;
 788 : 00;
 789 : 00;
 78A : 00;
 78B : 01;
 78C : 03;
 78D : 06;
 78E : 06;
 78F : 0f;
 790 : 00;
 791 : 00;
 792 : 00;
 793 : 00;
 794 : 00;
 795 : 00;
 796 : 00;
 797 : 00;
 798 : 00;
 799 : 18;
 79A : f4;
 79B : f8;
 79C : 38;
 79D : 7c;
 79E : fc;
 79F : fc;
 7A0 : 00;
 7A1 : 00;
 7A2 : 00;
 7A3 : 00;
 7A4 : 00;
 7A5 : 00;
 7A6 : 00;
 7A7 : 00;
 7A8 : 0f;
 7A9 : 1f;
 7AA : 30;
 7AB : 38;
 7AC : 1d;
 7AD : 03;
 7AE : 03;
 7AF : 00;
 7B0 : 00;
 7B1 : 00;
 7B2 : 00;
 7B3 : 00;
 7B4 : 00;
 7B5 : 00;
 7B6 : 00;
 7B7 : 00;
 7B8 : fc;
 7B9 : fc;
 7BA : 7c;
 7BB : 8e;
 7BC : 86;
 7BD : 9c;
 7BE : 78;
 7BF : 00;
 7C0 : 00;
 7C1 : 01;
 7C2 : 06;
 7C3 : 07;
 7C4 : 07;
 7C5 : 07;
 7C6 : 01;
 7C7 : 03;
 7C8 : 00;
 7C9 : 01;
 7CA : 06;
 7CB : 07;
 7CC : 07;
 7CD : 07;
 7CE : 01;
 7CF : 03;
 7D0 : 00;
 7D1 : c0;
 7D2 : 30;
 7D3 : f0;
 7D4 : f0;
 7D5 : f0;
 7D6 : 40;
 7D7 : 40;
 7D8 : 00;
 7D9 : c0;
 7DA : 30;
 7DB : f0;
 7DC : f0;
 7DD : f0;
 7DE : 40;
 7DF : 40;
 7E0 : 01;
 7E1 : 00;
 7E2 : 01;
 7E3 : 03;
 7E4 : 01;
 7E5 : 00;
 7E6 : 00;
 7E7 : 00;
 7E8 : 01;
 7E9 : 00;
 7EA : 01;
 7EB : 03;
 7EC : 01;
 7ED : 00;
 7EE : 00;
 7EF : 00;
 7F0 : 40;
 7F1 : 40;
 7F2 : 40;
 7F3 : 40;
 7F4 : 40;
 7F5 : 80;
 7F6 : 00;
 7F7 : 00;
 7F8 : 40;
 7F9 : 40;
 7FA : 40;
 7FB : 40;
 7FC : 40;
 7FD : 80;
 7FE : 00;
 7FF : 00;
 800 : ff;
 801 : ff;
 802 : ff;
 803 : ff;
 804 : c0;
 805 : c0;
 806 : c0;
 807 : c7;
 808 : 00;
 809 : 00;
 80A : 00;
 80B : 00;
 80C : 00;
 80D : 1f;
 80E : 10;
 80F : 17;
 810 : ff;
 811 : ff;
 812 : ff;
 813 : ff;
 814 : 00;
 815 : 00;
 816 : 00;
 817 : ff;
 818 : 00;
 819 : 00;
 81A : 00;
 81B : 00;
 81C : 00;
 81D : ff;
 81E : 00;
 81F : ff;
 820 : ff;
 821 : ff;
 822 : ff;
 823 : ff;
 824 : 7f;
 825 : 3f;
 826 : 1f;
 827 : cf;
 828 : 00;
 829 : 00;
 82A : 00;
 82B : 00;
 82C : 00;
 82D : 80;
 82E : 00;
 82F : c0;
 830 : ff;
 831 : ff;
 832 : ff;
 833 : f7;
 834 : f7;
 835 : e2;
 836 : e0;
 837 : c6;
 838 : 00;
 839 : 00;
 83A : 00;
 83B : 00;
 83C : 00;
 83D : 08;
 83E : 08;
 83F : 16;
 840 : ff;
 841 : ff;
 842 : ff;
 843 : ff;
 844 : bf;
 845 : bf;
 846 : 1f;
 847 : 1f;
 848 : 00;
 849 : 00;
 84A : 00;
 84B : 00;
 84C : 00;
 84D : 00;
 84E : 40;
 84F : c0;
 850 : ff;
 851 : ff;
 852 : ff;
 853 : ff;
 854 : fe;
 855 : f8;
 856 : e0;
 857 : c0;
 858 : 00;
 859 : 00;
 85A : 00;
 85B : 00;
 85C : 00;
 85D : 01;
 85E : 07;
 85F : 0c;
 860 : ff;
 861 : ff;
 862 : ff;
 863 : ff;
 864 : 07;
 865 : 00;
 866 : 3f;
 867 : ff;
 868 : 00;
 869 : 00;
 86A : 00;
 86B : 00;
 86C : 00;
 86D : c0;
 86E : 3f;
 86F : ff;
 870 : ff;
 871 : ff;
 872 : ff;
 873 : ff;
 874 : ff;
 875 : ff;
 876 : 3f;
 877 : cf;
 878 : 00;
 879 : 00;
 87A : 00;
 87B : 00;
 87C : 00;
 87D : 00;
 87E : 00;
 87F : c0;
 880 : ff;
 881 : ff;
 882 : ff;
 883 : ff;
 884 : ff;
 885 : ff;
 886 : ff;
 887 : ff;
 888 : 00;
 889 : 00;
 88A : 00;
 88B : 00;
 88C : 00;
 88D : 00;
 88E : 00;
 88F : 00;
 890 : ff;
 891 : ff;
 892 : ff;
 893 : 77;
 894 : 13;
 895 : 01;
 896 : 10;
 897 : 18;
 898 : 00;
 899 : 00;
 89A : 00;
 89B : 00;
 89C : 00;
 89D : 44;
 89E : 56;
 89F : 5b;
 8A0 : ff;
 8A1 : ff;
 8A2 : ff;
 8A3 : ff;
 8A4 : ff;
 8A5 : ff;
 8A6 : ff;
 8A7 : 7f;
 8A8 : 00;
 8A9 : 00;
 8AA : 00;
 8AB : 00;
 8AC : 00;
 8AD : 00;
 8AE : 00;
 8AF : 00;
 8B0 : ff;
 8B1 : ff;
 8B2 : ff;
 8B3 : f7;
 8B4 : e5;
 8B5 : c1;
 8B6 : 84;
 8B7 : 0c;
 8B8 : 00;
 8B9 : 00;
 8BA : 00;
 8BB : 00;
 8BC : 00;
 8BD : 10;
 8BE : 34;
 8BF : 6d;
 8C0 : ff;
 8C1 : ff;
 8C2 : ff;
 8C3 : ff;
 8C4 : ff;
 8C5 : 7f;
 8C6 : 7e;
 8C7 : 7e;
 8C8 : 00;
 8C9 : 00;
 8CA : 00;
 8CB : 00;
 8CC : 00;
 8CD : 00;
 8CE : 00;
 8CF : 00;
 8D0 : ff;
 8D1 : ff;
 8D2 : bf;
 8D3 : b7;
 8D4 : 17;
 8D5 : 03;
 8D6 : 23;
 8D7 : 21;
 8D8 : 00;
 8D9 : 00;
 8DA : 00;
 8DB : 00;
 8DC : 40;
 8DD : 48;
 8DE : a8;
 8DF : ac;
 8E0 : ff;
 8E1 : ff;
 8E2 : fb;
 8E3 : f9;
 8E4 : f8;
 8E5 : f8;
 8E6 : f8;
 8E7 : f8;
 8E8 : 00;
 8E9 : 00;
 8EA : 00;
 8EB : 00;
 8EC : 02;
 8ED : 02;
 8EE : 02;
 8EF : 02;
 8F0 : ff;
 8F1 : ff;
 8F2 : 78;
 8F3 : 38;
 8F4 : 18;
 8F5 : 08;
 8F6 : 80;
 8F7 : c0;
 8F8 : 00;
 8F9 : 00;
 8FA : 00;
 8FB : 03;
 8FC : 43;
 8FD : 62;
 8FE : b2;
 8FF : da;
 900 : ff;
 901 : ff;
 902 : 01;
 903 : 01;
 904 : 01;
 905 : 00;
 906 : ff;
 907 : ff;
 908 : 00;
 909 : 00;
 90A : 00;
 90B : fc;
 90C : fc;
 90D : 00;
 90E : ff;
 90F : ff;
 910 : ff;
 911 : ff;
 912 : ff;
 913 : ff;
 914 : ff;
 915 : ff;
 916 : 7f;
 917 : 3f;
 918 : 00;
 919 : 00;
 91A : 00;
 91B : 00;
 91C : 00;
 91D : 00;
 91E : 00;
 91F : 00;
 920 : c7;
 921 : c7;
 922 : c7;
 923 : c7;
 924 : c7;
 925 : c7;
 926 : c7;
 927 : c7;
 928 : 17;
 929 : 17;
 92A : 17;
 92B : 17;
 92C : 17;
 92D : 17;
 92E : 17;
 92F : 17;
 930 : ff;
 931 : ff;
 932 : ff;
 933 : ff;
 934 : f9;
 935 : f9;
 936 : ff;
 937 : ff;
 938 : ff;
 939 : ff;
 93A : ff;
 93B : ff;
 93C : f9;
 93D : f9;
 93E : ff;
 93F : ff;
 940 : f7;
 941 : fb;
 942 : fb;
 943 : fd;
 944 : fc;
 945 : fc;
 946 : 7c;
 947 : 7c;
 948 : f0;
 949 : f8;
 94A : f8;
 94B : fc;
 94C : fc;
 94D : fc;
 94E : 7c;
 94F : 7c;
 950 : c7;
 951 : 8f;
 952 : 8f;
 953 : 1f;
 954 : 1f;
 955 : 3f;
 956 : 3f;
 957 : 7f;
 958 : 17;
 959 : 2f;
 95A : 2f;
 95B : 5f;
 95C : 5f;
 95D : bf;
 95E : bf;
 95F : 7f;
 960 : 0f;
 961 : 0f;
 962 : 87;
 963 : 87;
 964 : c2;
 965 : c2;
 966 : e0;
 967 : e0;
 968 : 60;
 969 : 60;
 96A : b0;
 96B : b0;
 96C : d8;
 96D : d8;
 96E : ec;
 96F : ec;
 970 : 83;
 971 : 8f;
 972 : 0f;
 973 : 1f;
 974 : 1f;
 975 : 3f;
 976 : 3f;
 977 : 3f;
 978 : 33;
 979 : 2f;
 97A : 6f;
 97B : 5f;
 97C : df;
 97D : bf;
 97E : bf;
 97F : bf;
 980 : ff;
 981 : ff;
 982 : ff;
 983 : fe;
 984 : f9;
 985 : e7;
 986 : fc;
 987 : f0;
 988 : ff;
 989 : ff;
 98A : ff;
 98B : fe;
 98C : f9;
 98D : e7;
 98E : fc;
 98F : f3;
 990 : f7;
 991 : fb;
 992 : fb;
 993 : 73;
 994 : c1;
 995 : 03;
 996 : 0f;
 997 : 3f;
 998 : f0;
 999 : f8;
 99A : f8;
 99B : 70;
 99C : cc;
 99D : 30;
 99E : c0;
 99F : 00;
 9A0 : ff;
 9A1 : ff;
 9A2 : ff;
 9A3 : 80;
 9A4 : 80;
 9A5 : 80;
 9A6 : 8f;
 9A7 : 8f;
 9A8 : 00;
 9A9 : 00;
 9AA : 00;
 9AB : 00;
 9AC : 3f;
 9AD : 20;
 9AE : 2f;
 9AF : 2f;
 9B0 : ff;
 9B1 : ff;
 9B2 : ff;
 9B3 : 0f;
 9B4 : 0f;
 9B5 : 07;
 9B6 : f7;
 9B7 : f1;
 9B8 : 00;
 9B9 : 00;
 9BA : 00;
 9BB : 00;
 9BC : e0;
 9BD : 00;
 9BE : f0;
 9BF : f0;
 9C0 : 1c;
 9C1 : 1e;
 9C2 : 1f;
 9C3 : 1f;
 9C4 : 1f;
 9C5 : 1f;
 9C6 : 1f;
 9C7 : 1f;
 9C8 : 5d;
 9C9 : 5e;
 9CA : 5f;
 9CB : 5f;
 9CC : 5f;
 9CD : 5f;
 9CE : 5f;
 9CF : 5f;
 9D0 : 3e;
 9D1 : 1c;
 9D2 : 08;
 9D3 : 80;
 9D4 : c1;
 9D5 : e3;
 9D6 : f7;
 9D7 : ff;
 9D8 : 80;
 9D9 : c1;
 9DA : 63;
 9DB : b6;
 9DC : d9;
 9DD : eb;
 9DE : f7;
 9DF : ff;
 9E0 : 1c;
 9E1 : 3c;
 9E2 : 7c;
 9E3 : fc;
 9E4 : fc;
 9E5 : fc;
 9E6 : fc;
 9E7 : fc;
 9E8 : dd;
 9E9 : bd;
 9EA : 7d;
 9EB : fd;
 9EC : fd;
 9ED : fd;
 9EE : fd;
 9EF : fd;
 9F0 : 7c;
 9F1 : 7c;
 9F2 : 78;
 9F3 : 78;
 9F4 : 71;
 9F5 : 71;
 9F6 : 63;
 9F7 : 63;
 9F8 : 01;
 9F9 : 01;
 9FA : 02;
 9FB : 02;
 9FC : 05;
 9FD : 05;
 9FE : 0b;
 9FF : 0b;
 A00 : 71;
 A01 : 70;
 A02 : f8;
 A03 : f8;
 A04 : fc;
 A05 : fc;
 A06 : fe;
 A07 : fe;
 A08 : 74;
 A09 : 76;
 A0A : fa;
 A0B : fb;
 A0C : fd;
 A0D : fd;
 A0E : fe;
 A0F : fe;
 A10 : f8;
 A11 : f8;
 A12 : f8;
 A13 : 78;
 A14 : 78;
 A15 : 38;
 A16 : 38;
 A17 : 18;
 A18 : 02;
 A19 : 02;
 A1A : 02;
 A1B : 02;
 A1C : 02;
 A1D : 82;
 A1E : 82;
 A1F : c2;
 A20 : e0;
 A21 : f0;
 A22 : f8;
 A23 : f8;
 A24 : fc;
 A25 : fc;
 A26 : fe;
 A27 : ff;
 A28 : ea;
 A29 : f6;
 A2A : fa;
 A2B : fa;
 A2C : fc;
 A2D : fc;
 A2E : fe;
 A2F : ff;
 A30 : ff;
 A31 : ff;
 A32 : ff;
 A33 : ff;
 A34 : ff;
 A35 : ff;
 A36 : ff;
 A37 : ff;
 A38 : ff;
 A39 : ff;
 A3A : ff;
 A3B : ff;
 A3C : ff;
 A3D : ff;
 A3E : ff;
 A3F : ff;
 A40 : 1f;
 A41 : 1f;
 A42 : 1f;
 A43 : 1f;
 A44 : 1f;
 A45 : 1f;
 A46 : 1f;
 A47 : 1f;
 A48 : 40;
 A49 : 40;
 A4A : 40;
 A4B : 40;
 A4C : 40;
 A4D : 40;
 A4E : 40;
 A4F : 40;
 A50 : f8;
 A51 : ff;
 A52 : ff;
 A53 : f8;
 A54 : f8;
 A55 : f8;
 A56 : f8;
 A57 : f8;
 A58 : f8;
 A59 : ff;
 A5A : ff;
 A5B : f8;
 A5C : fb;
 A5D : fa;
 A5E : fa;
 A5F : fa;
 A60 : fc;
 A61 : f8;
 A62 : f0;
 A63 : 01;
 A64 : 01;
 A65 : 03;
 A66 : c3;
 A67 : 87;
 A68 : fc;
 A69 : fa;
 A6A : f6;
 A6B : 0d;
 A6C : f9;
 A6D : 03;
 A6E : 13;
 A6F : 37;
 A70 : 7f;
 A71 : f9;
 A72 : f9;
 A73 : ff;
 A74 : fe;
 A75 : fc;
 A76 : ff;
 A77 : ff;
 A78 : 7f;
 A79 : f9;
 A7A : f9;
 A7B : ff;
 A7C : fe;
 A7D : fc;
 A7E : ff;
 A7F : ff;
 A80 : f0;
 A81 : f0;
 A82 : f8;
 A83 : 78;
 A84 : fc;
 A85 : f4;
 A86 : f6;
 A87 : fa;
 A88 : f6;
 A89 : f6;
 A8A : fb;
 A8B : 7b;
 A8C : fd;
 A8D : f5;
 A8E : f6;
 A8F : fa;
 A90 : 3f;
 A91 : 3f;
 A92 : 3f;
 A93 : 3f;
 A94 : 3f;
 A95 : 1f;
 A96 : 0f;
 A97 : 07;
 A98 : bf;
 A99 : bf;
 A9A : 3f;
 A9B : 3f;
 A9C : bf;
 A9D : 9f;
 A9E : cf;
 A9F : d7;
 AA0 : e0;
 AA1 : f8;
 AA2 : ff;
 AA3 : f3;
 AA4 : fc;
 AA5 : ff;
 AA6 : ff;
 AA7 : ff;
 AA8 : e4;
 AA9 : f8;
 AAA : ff;
 AAB : f3;
 AAC : fc;
 AAD : ff;
 AAE : ff;
 AAF : ff;
 AB0 : ff;
 AB1 : ff;
 AB2 : 3f;
 AB3 : cf;
 AB4 : f3;
 AB5 : 3d;
 AB6 : d8;
 AB7 : b0;
 AB8 : 00;
 AB9 : 00;
 ABA : 00;
 ABB : c0;
 ABC : f0;
 ABD : 3c;
 ABE : d8;
 ABF : b6;
 AC0 : 8f;
 AC1 : ef;
 AC2 : e0;
 AC3 : f8;
 AC4 : f8;
 AC5 : ff;
 AC6 : ff;
 AC7 : ff;
 AC8 : 0f;
 AC9 : 0f;
 ACA : 00;
 ACB : 03;
 ACC : 00;
 ACD : 00;
 ACE : 00;
 ACF : 00;
 AD0 : f1;
 AD1 : f1;
 AD2 : 01;
 AD3 : 01;
 AD4 : 01;
 AD5 : ff;
 AD6 : ff;
 AD7 : ff;
 AD8 : f4;
 AD9 : f4;
 ADA : 04;
 ADB : fc;
 ADC : 00;
 ADD : 00;
 ADE : 00;
 ADF : 00;
 AE0 : 1f;
 AE1 : 1f;
 AE2 : 1f;
 AE3 : 1f;
 AE4 : 1f;
 AE5 : 1f;
 AE6 : 1f;
 AE7 : 1f;
 AE8 : 5f;
 AE9 : 5f;
 AEA : 5f;
 AEB : 5f;
 AEC : 5f;
 AED : 5f;
 AEE : 5f;
 AEF : 5f;
 AF0 : fc;
 AF1 : fc;
 AF2 : fc;
 AF3 : fc;
 AF4 : f4;
 AF5 : f4;
 AF6 : f4;
 AF7 : f4;
 AF8 : fd;
 AF9 : fd;
 AFA : fd;
 AFB : fd;
 AFC : f5;
 AFD : f5;
 AFE : f5;
 AFF : f5;
 B00 : 0c;
 B01 : 1c;
 B02 : 0c;
 B03 : 0c;
 B04 : 0c;
 B05 : 0c;
 B06 : 3f;
 B07 : 00;
 B08 : 0c;
 B09 : 1c;
 B0A : 0c;
 B0B : 0c;
 B0C : 0c;
 B0D : 0c;
 B0E : 3f;
 B0F : 00;
 B10 : 3e;
 B11 : 63;
 B12 : 07;
 B13 : 1e;
 B14 : 3c;
 B15 : 70;
 B16 : 7f;
 B17 : 00;
 B18 : 3e;
 B19 : 63;
 B1A : 07;
 B1B : 1e;
 B1C : 3c;
 B1D : 70;
 B1E : 7f;
 B1F : 00;
 B20 : 7e;
 B21 : 63;
 B22 : 63;
 B23 : 63;
 B24 : 7e;
 B25 : 60;
 B26 : 60;
 B27 : 00;
 B28 : 7e;
 B29 : 63;
 B2A : 63;
 B2B : 63;
 B2C : 7e;
 B2D : 60;
 B2E : 60;
 B2F : 00;
 B30 : 63;
 B31 : 63;
 B32 : 63;
 B33 : 63;
 B34 : 63;
 B35 : 63;
 B36 : 3e;
 B37 : 00;
 B38 : 63;
 B39 : 63;
 B3A : 63;
 B3B : 63;
 B3C : 63;
 B3D : 63;
 B3E : 3e;
 B3F : 00;
 B40 : 63;
 B41 : 63;
 B42 : 63;
 B43 : 7f;
 B44 : 63;
 B45 : 63;
 B46 : 63;
 B47 : 00;
 B48 : 63;
 B49 : 63;
 B4A : 63;
 B4B : 7f;
 B4C : 63;
 B4D : 63;
 B4E : 63;
 B4F : 00;
 B50 : 3f;
 B51 : 0c;
 B52 : 0c;
 B53 : 0c;
 B54 : 0c;
 B55 : 0c;
 B56 : 3f;
 B57 : 00;
 B58 : 3f;
 B59 : 0c;
 B5A : 0c;
 B5B : 0c;
 B5C : 0c;
 B5D : 0c;
 B5E : 3f;
 B5F : 00;
 B60 : 00;
 B61 : 00;
 B62 : 00;
 B63 : 7e;
 B64 : 00;
 B65 : 00;
 B66 : 00;
 B67 : 00;
 B68 : 00;
 B69 : 00;
 B6A : 00;
 B6B : 7e;
 B6C : 00;
 B6D : 00;
 B6E : 00;
 B6F : 00;
 B70 : 3c;
 B71 : 66;
 B72 : 60;
 B73 : 3e;
 B74 : 03;
 B75 : 63;
 B76 : 3e;
 B77 : 00;
 B78 : 3c;
 B79 : 66;
 B7A : 60;
 B7B : 3e;
 B7C : 03;
 B7D : 63;
 B7E : 3e;
 B7F : 00;
 B80 : 1e;
 B81 : 33;
 B82 : 60;
 B83 : 60;
 B84 : 60;
 B85 : 33;
 B86 : 1e;
 B87 : 00;
 B88 : 1e;
 B89 : 33;
 B8A : 60;
 B8B : 60;
 B8C : 60;
 B8D : 33;
 B8E : 1e;
 B8F : 00;
 B90 : 3e;
 B91 : 63;
 B92 : 63;
 B93 : 63;
 B94 : 63;
 B95 : 63;
 B96 : 3e;
 B97 : 00;
 B98 : 3e;
 B99 : 63;
 B9A : 63;
 B9B : 63;
 B9C : 63;
 B9D : 63;
 B9E : 3e;
 B9F : 00;
 BA0 : 7e;
 BA1 : 63;
 BA2 : 63;
 BA3 : 67;
 BA4 : 7c;
 BA5 : 6e;
 BA6 : 67;
 BA7 : 00;
 BA8 : 7e;
 BA9 : 63;
 BAA : 63;
 BAB : 67;
 BAC : 7c;
 BAD : 6e;
 BAE : 67;
 BAF : 00;
 BB0 : 7f;
 BB1 : 60;
 BB2 : 60;
 BB3 : 7e;
 BB4 : 60;
 BB5 : 60;
 BB6 : 7f;
 BB7 : 00;
 BB8 : 7f;
 BB9 : 60;
 BBA : 60;
 BBB : 7e;
 BBC : 60;
 BBD : 60;
 BBE : 7f;
 BBF : 00;
 BC0 : 00;
 BC1 : 22;
 BC2 : 65;
 BC3 : 25;
 BC4 : 25;
 BC5 : 72;
 BC6 : 00;
 BC7 : 00;
 BC8 : 00;
 BC9 : 00;
 BCA : 00;
 BCB : 00;
 BCC : 00;
 BCD : 00;
 BCE : 00;
 BCF : 00;
 BD0 : 00;
 BD1 : 72;
 BD2 : 45;
 BD3 : 65;
 BD4 : 15;
 BD5 : 62;
 BD6 : 00;
 BD7 : 00;
 BD8 : 00;
 BD9 : 00;
 BDA : 00;
 BDB : 00;
 BDC : 00;
 BDD : 00;
 BDE : 00;
 BDF : 00;
 BE0 : 00;
 BE1 : 67;
 BE2 : 52;
 BE3 : 62;
 BE4 : 42;
 BE5 : 42;
 BE6 : 00;
 BE7 : 00;
 BE8 : 00;
 BE9 : 00;
 BEA : 00;
 BEB : 00;
 BEC : 00;
 BED : 00;
 BEE : 00;
 BEF : 00;
 BF0 : 00;
 BF1 : 60;
 BF2 : 80;
 BF3 : 40;
 BF4 : 20;
 BF5 : c6;
 BF6 : 00;
 BF7 : 00;
 BF8 : 00;
 BF9 : 00;
 BFA : 00;
 BFB : 00;
 BFC : 00;
 BFD : 00;
 BFE : 00;
 BFF : 00;
 C00 : 63;
 C01 : 66;
 C02 : 6c;
 C03 : 78;
 C04 : 7c;
 C05 : 66;
 C06 : 63;
 C07 : 00;
 C08 : 63;
 C09 : 66;
 C0A : 6c;
 C0B : 78;
 C0C : 7c;
 C0D : 66;
 C0E : 63;
 C0F : 00;
 C10 : 7e;
 C11 : 63;
 C12 : 63;
 C13 : 7e;
 C14 : 63;
 C15 : 63;
 C16 : 7e;
 C17 : 00;
 C18 : 7e;
 C19 : 63;
 C1A : 63;
 C1B : 7e;
 C1C : 63;
 C1D : 63;
 C1E : 7e;
 C1F : 00;
 C20 : 7f;
 C21 : 60;
 C22 : 60;
 C23 : 7e;
 C24 : 60;
 C25 : 60;
 C26 : 60;
 C27 : 00;
 C28 : 7f;
 C29 : 60;
 C2A : 60;
 C2B : 7e;
 C2C : 60;
 C2D : 60;
 C2E : 60;
 C2F : 00;
 C30 : 1c;
 C31 : 36;
 C32 : 63;
 C33 : 63;
 C34 : 7f;
 C35 : 63;
 C36 : 63;
 C37 : 00;
 C38 : 1c;
 C39 : 36;
 C3A : 63;
 C3B : 63;
 C3C : 7f;
 C3D : 63;
 C3E : 63;
 C3F : 00;
 C40 : 60;
 C41 : 60;
 C42 : 60;
 C43 : 60;
 C44 : 60;
 C45 : 60;
 C46 : 7f;
 C47 : 00;
 C48 : 60;
 C49 : 60;
 C4A : 60;
 C4B : 60;
 C4C : 60;
 C4D : 60;
 C4E : 7f;
 C4F : 00;
 C50 : 63;
 C51 : 73;
 C52 : 7b;
 C53 : 7f;
 C54 : 6f;
 C55 : 67;
 C56 : 63;
 C57 : 00;
 C58 : 63;
 C59 : 73;
 C5A : 7b;
 C5B : 7f;
 C5C : 6f;
 C5D : 67;
 C5E : 63;
 C5F : 00;
 C60 : 33;
 C61 : 33;
 C62 : 33;
 C63 : 1e;
 C64 : 0c;
 C65 : 0c;
 C66 : 0c;
 C67 : 00;
 C68 : 33;
 C69 : 33;
 C6A : 33;
 C6B : 1e;
 C6C : 0c;
 C6D : 0c;
 C6E : 0c;
 C6F : 00;
 C70 : 7f;
 C71 : 60;
 C72 : 60;
 C73 : 7e;
 C74 : 60;
 C75 : 60;
 C76 : 7f;
 C77 : 00;
 C78 : 7f;
 C79 : 60;
 C7A : 60;
 C7B : 7e;
 C7C : 60;
 C7D : 60;
 C7E : 7f;
 C7F : 00;
 C80 : 36;
 C81 : 36;
 C82 : 12;
 C83 : 00;
 C84 : 00;
 C85 : 00;
 C86 : 00;
 C87 : 00;
 C88 : 36;
 C89 : 36;
 C8A : 12;
 C8B : 00;
 C8C : 00;
 C8D : 00;
 C8E : 00;
 C8F : 00;
 C90 : 3e;
 C91 : 63;
 C92 : 63;
 C93 : 63;
 C94 : 63;
 C95 : 63;
 C96 : 3e;
 C97 : 00;
 C98 : 3e;
 C99 : 63;
 C9A : 63;
 C9B : 63;
 C9C : 63;
 C9D : 63;
 C9E : 3e;
 C9F : 00;
 CA0 : 3c;
 CA1 : 66;
 CA2 : 60;
 CA3 : 3e;
 CA4 : 03;
 CA5 : 63;
 CA6 : 3e;
 CA7 : 00;
 CA8 : 3c;
 CA9 : 66;
 CAA : 60;
 CAB : 3e;
 CAC : 03;
 CAD : 63;
 CAE : 3e;
 CAF : 00;
 CB0 : 00;
 CB1 : 00;
 CB2 : 00;
 CB3 : 00;
 CB4 : 00;
 CB5 : 00;
 CB6 : 00;
 CB7 : 00;
 CB8 : 00;
 CB9 : 38;
 CBA : 7c;
 CBB : fe;
 CBC : fe;
 CBD : fe;
 CBE : 7c;
 CBF : 38;
 CC0 : 30;
 CC1 : 48;
 CC2 : 58;
 CC3 : 30;
 CC4 : ca;
 CC5 : 8c;
 CC6 : 72;
 CC7 : 00;
 CC8 : 00;
 CC9 : 00;
 CCA : 00;
 CCB : 00;
 CCC : 00;
 CCD : 00;
 CCE : 00;
 CCF : 00;
 CD0 : 00;
 CD1 : 00;
 CD2 : 00;
 CD3 : 00;
 CD4 : 00;
 CD5 : 18;
 CD6 : 10;
 CD7 : 20;
 CD8 : 00;
 CD9 : 00;
 CDA : 00;
 CDB : 00;
 CDC : 00;
 CDD : 00;
 CDE : 00;
 CDF : 00;
 CE0 : 00;
 CE1 : 00;
 CE2 : 00;
 CE3 : 00;
 CE4 : 00;
 CE5 : 00;
 CE6 : 00;
 CE7 : 01;
 CE8 : 00;
 CE9 : 00;
 CEA : 00;
 CEB : 00;
 CEC : 00;
 CED : 00;
 CEE : 00;
 CEF : 01;
 CF0 : 00;
 CF1 : 00;
 CF2 : 00;
 CF3 : 00;
 CF4 : 00;
 CF5 : 00;
 CF6 : f0;
 CF7 : 08;
 CF8 : 00;
 CF9 : 00;
 CFA : 00;
 CFB : 00;
 CFC : 00;
 CFD : 00;
 CFE : f0;
 CFF : 08;
 D00 : 47;
 D01 : 47;
 D02 : 0f;
 D03 : 0f;
 D04 : 1f;
 D05 : 1f;
 D06 : 3f;
 D07 : 3f;
 D08 : 17;
 D09 : 17;
 D0A : 2f;
 D0B : 2f;
 D0C : 5f;
 D0D : 5f;
 D0E : 3f;
 D0F : 3f;
 D10 : ff;
 D11 : cf;
 D12 : cf;
 D13 : fb;
 D14 : f7;
 D15 : e7;
 D16 : ff;
 D17 : ff;
 D18 : ff;
 D19 : cf;
 D1A : cf;
 D1B : fb;
 D1C : f7;
 D1D : e7;
 D1E : ff;
 D1F : ff;
 D20 : 18;
 D21 : 08;
 D22 : 88;
 D23 : 80;
 D24 : 40;
 D25 : 40;
 D26 : a0;
 D27 : a0;
 D28 : 42;
 D29 : 62;
 D2A : a2;
 D2B : b2;
 D2C : 52;
 D2D : 5a;
 D2E : aa;
 D2F : ac;
 D30 : ff;
 D31 : ff;
 D32 : ff;
 D33 : ff;
 D34 : fd;
 D35 : fd;
 D36 : fd;
 D37 : fd;
 D38 : ff;
 D39 : ff;
 D3A : ff;
 D3B : ff;
 D3C : fd;
 D3D : fd;
 D3E : fd;
 D3F : fd;
 D40 : c7;
 D41 : f7;
 D42 : f0;
 D43 : f8;
 D44 : f8;
 D45 : ff;
 D46 : ff;
 D47 : ff;
 D48 : 07;
 D49 : 07;
 D4A : 00;
 D4B : 03;
 D4C : 00;
 D4D : 00;
 D4E : 00;
 D4F : 00;
 D50 : f8;
 D51 : f8;
 D52 : 00;
 D53 : 00;
 D54 : 00;
 D55 : ff;
 D56 : ff;
 D57 : ff;
 D58 : fa;
 D59 : fa;
 D5A : 02;
 D5B : fe;
 D5C : 00;
 D5D : 00;
 D5E : 00;
 D5F : 00;
 D60 : 8f;
 D61 : ef;
 D62 : c0;
 D63 : f0;
 D64 : e0;
 D65 : ff;
 D66 : ff;
 D67 : ff;
 D68 : 0f;
 D69 : 0f;
 D6A : 00;
 D6B : 07;
 D6C : 00;
 D6D : 00;
 D6E : 00;
 D6F : 00;
 D70 : ff;
 D71 : ff;
 D72 : 00;
 D73 : 00;
 D74 : 00;
 D75 : ff;
 D76 : ff;
 D77 : ff;
 D78 : ff;
 D79 : ff;
 D7A : 00;
 D7B : ff;
 D7C : 00;
 D7D : 00;
 D7E : 00;
 D7F : 00;
 D80 : c3;
 D81 : ff;
 D82 : 00;
 D83 : 00;
 D84 : 00;
 D85 : ff;
 D86 : ff;
 D87 : ff;
 D88 : c3;
 D89 : ff;
 D8A : 00;
 D8B : ff;
 D8C : 00;
 D8D : 00;
 D8E : 00;
 D8F : 00;
 D90 : 03;
 D91 : 81;
 D92 : 00;
 D93 : 00;
 D94 : 03;
 D95 : ff;
 D96 : ff;
 D97 : ff;
 D98 : 6b;
 D99 : b5;
 D9A : 36;
 D9B : f8;
 D9C : 00;
 D9D : 00;
 D9E : 00;
 D9F : 00;
 DA0 : ff;
 DA1 : ff;
 DA2 : 7e;
 DA3 : 00;
 DA4 : 00;
 DA5 : e0;
 DA6 : ff;
 DA7 : ff;
 DA8 : ff;
 DA9 : ff;
 DAA : 7e;
 DAB : 81;
 DAC : 1f;
 DAD : 00;
 DAE : 00;
 DAF : 00;
 DB0 : 61;
 DB1 : c3;
 DB2 : 07;
 DB3 : 0f;
 DB4 : 1f;
 DB5 : 7f;
 DB6 : ff;
 DB7 : ff;
 DB8 : 6c;
 DB9 : d8;
 DBA : 30;
 DBB : e0;
 DBC : 80;
 DBD : 00;
 DBE : 00;
 DBF : 00;
 DC0 : 1f;
 DC1 : df;
 DC2 : c0;
 DC3 : f0;
 DC4 : f0;
 DC5 : ff;
 DC6 : ff;
 DC7 : ff;
 DC8 : 1f;
 DC9 : 1f;
 DCA : 00;
 DCB : 07;
 DCC : 00;
 DCD : 00;
 DCE : 00;
 DCF : 00;
 DD0 : 84;
 DD1 : fc;
 DD2 : 00;
 DD3 : 00;
 DD4 : 00;
 DD5 : ff;
 DD6 : ff;
 DD7 : ff;
 DD8 : 85;
 DD9 : fd;
 DDA : 01;
 DDB : ff;
 DDC : 00;
 DDD : 00;
 DDE : 00;
 DDF : 00;
 DE0 : 7f;
 DE1 : 7f;
 DE2 : 00;
 DE3 : 00;
 DE4 : 00;
 DE5 : ff;
 DE6 : ff;
 DE7 : ff;
 DE8 : 7f;
 DE9 : 7f;
 DEA : 00;
 DEB : 5f;
 DEC : 00;
 DED : 00;
 DEE : 00;
 DEF : 00;
 DF0 : fc;
 DF1 : ff;
 DF2 : 00;
 DF3 : 00;
 DF4 : 00;
 DF5 : ff;
 DF6 : ff;
 DF7 : ff;
 DF8 : fc;
 DF9 : ff;
 DFA : 00;
 DFB : ff;
 DFC : 00;
 DFD : 00;
 DFE : 00;
 DFF : 00;
 E00 : 30;
 E01 : f0;
 E02 : 00;
 E03 : 00;
 E04 : 00;
 E05 : ff;
 E06 : ff;
 E07 : ff;
 E08 : 34;
 E09 : f6;
 E0A : 02;
 E0B : ff;
 E0C : 00;
 E0D : 00;
 E0E : 00;
 E0F : 00;
 E10 : ff;
 E11 : ff;
 E12 : 00;
 E13 : 00;
 E14 : 00;
 E15 : ff;
 E16 : ff;
 E17 : ff;
 E18 : ff;
 E19 : ff;
 E1A : 00;
 E1B : 7f;
 E1C : 00;
 E1D : 00;
 E1E : 00;
 E1F : 00;
 E20 : e1;
 E21 : ff;
 E22 : 00;
 E23 : 00;
 E24 : 00;
 E25 : ff;
 E26 : ff;
 E27 : ff;
 E28 : e1;
 E29 : ff;
 E2A : 00;
 E2B : ff;
 E2C : 00;
 E2D : 00;
 E2E : 00;
 E2F : 00;
 E30 : 1f;
 E31 : 1f;
 E32 : 1f;
 E33 : 1f;
 E34 : 1f;
 E35 : ff;
 E36 : ff;
 E37 : ff;
 E38 : 40;
 E39 : 40;
 E3A : 40;
 E3B : c0;
 E3C : 00;
 E3D : 00;
 E3E : 00;
 E3F : 00;
 E40 : 00;
 E41 : 1f;
 E42 : 3f;
 E43 : 78;
 E44 : 77;
 E45 : 6f;
 E46 : 6f;
 E47 : 6f;
 E48 : 00;
 E49 : 00;
 E4A : 00;
 E4B : 00;
 E4C : 07;
 E4D : 0f;
 E4E : 0f;
 E4F : 0f;
 E50 : 00;
 E51 : f8;
 E52 : fc;
 E53 : 1e;
 E54 : ee;
 E55 : f6;
 E56 : f6;
 E57 : f6;
 E58 : 00;
 E59 : 00;
 E5A : 00;
 E5B : 00;
 E5C : e0;
 E5D : f0;
 E5E : f0;
 E5F : f0;
 E60 : f6;
 E61 : f6;
 E62 : f6;
 E63 : ee;
 E64 : 1e;
 E65 : fc;
 E66 : f8;
 E67 : 00;
 E68 : f0;
 E69 : f0;
 E6A : f0;
 E6B : e0;
 E6C : 00;
 E6D : 00;
 E6E : 00;
 E6F : 00;
 E70 : 6f;
 E71 : 6f;
 E72 : 6f;
 E73 : 77;
 E74 : 78;
 E75 : 3f;
 E76 : 1f;
 E77 : 00;
 E78 : 0f;
 E79 : 0f;
 E7A : 0f;
 E7B : 07;
 E7C : 00;
 E7D : 00;
 E7E : 00;
 E7F : 00;
 E80 : 00;
 E81 : ff;
 E82 : ff;
 E83 : 00;
 E84 : ff;
 E85 : ff;
 E86 : ff;
 E87 : ff;
 E88 : 00;
 E89 : 00;
 E8A : 00;
 E8B : 00;
 E8C : ff;
 E8D : ff;
 E8E : ff;
 E8F : ff;
 E90 : f6;
 E91 : f6;
 E92 : f6;
 E93 : f6;
 E94 : f6;
 E95 : f6;
 E96 : f6;
 E97 : f6;
 E98 : f0;
 E99 : f0;
 E9A : f0;
 E9B : f0;
 E9C : f0;
 E9D : f0;
 E9E : f0;
 E9F : f0;
 EA0 : ff;
 EA1 : ff;
 EA2 : ff;
 EA3 : ff;
 EA4 : 00;
 EA5 : ff;
 EA6 : ff;
 EA7 : 00;
 EA8 : ff;
 EA9 : ff;
 EAA : ff;
 EAB : ff;
 EAC : 00;
 EAD : 00;
 EAE : 00;
 EAF : 00;
 EB0 : 6f;
 EB1 : 6f;
 EB2 : 6f;
 EB3 : 6f;
 EB4 : 6f;
 EB5 : 6f;
 EB6 : 6f;
 EB7 : 6f;
 EB8 : 0f;
 EB9 : 0f;
 EBA : 0f;
 EBB : 0f;
 EBC : 0f;
 EBD : 0f;
 EBE : 0f;
 EBF : 0f;
 EC0 : 00;
 EC1 : 00;
 EC2 : 00;
 EC3 : 00;
 EC4 : 00;
 EC5 : 00;
 EC6 : 00;
 EC7 : 00;
 EC8 : 00;
 EC9 : 00;
 ECA : 00;
 ECB : 00;
 ECC : 00;
 ECD : 00;
 ECE : 00;
 ECF : 00;
 ED0 : 00;
 ED1 : 00;
 ED2 : 00;
 ED3 : 00;
 ED4 : 00;
 ED5 : 00;
 ED6 : 00;
 ED7 : 00;
 ED8 : 00;
 ED9 : 00;
 EDA : 00;
 EDB : 00;
 EDC : 00;
 EDD : 00;
 EDE : 00;
 EDF : 00;
 EE0 : 00;
 EE1 : 00;
 EE2 : 00;
 EE3 : 00;
 EE4 : 00;
 EE5 : 00;
 EE6 : 00;
 EE7 : 00;
 EE8 : 00;
 EE9 : 00;
 EEA : 00;
 EEB : 00;
 EEC : 00;
 EED : 00;
 EEE : 00;
 EEF : 00;
 EF0 : 00;
 EF1 : 00;
 EF2 : 00;
 EF3 : 00;
 EF4 : 00;
 EF5 : 00;
 EF6 : 00;
 EF7 : 00;
 EF8 : 00;
 EF9 : 00;
 EFA : 00;
 EFB : 00;
 EFC : 00;
 EFD : 00;
 EFE : 00;
 EFF : 00;
 F00 : ff;
 F01 : ff;
 F02 : ff;
 F03 : ff;
 F04 : ff;
 F05 : ff;
 F06 : ff;
 F07 : ff;
 F08 : ff;
 F09 : ff;
 F0A : ff;
 F0B : ff;
 F0C : ff;
 F0D : ff;
 F0E : ff;
 F0F : ff;
 F10 : ff;
 F11 : ff;
 F12 : ff;
 F13 : ff;
 F14 : ff;
 F15 : ff;
 F16 : ff;
 F17 : ff;
 F18 : ff;
 F19 : ff;
 F1A : ff;
 F1B : ff;
 F1C : ff;
 F1D : ff;
 F1E : ff;
 F1F : ff;
 F20 : ff;
 F21 : ff;
 F22 : ff;
 F23 : ff;
 F24 : ff;
 F25 : ff;
 F26 : ff;
 F27 : ff;
 F28 : ff;
 F29 : ff;
 F2A : ff;
 F2B : ff;
 F2C : ff;
 F2D : ff;
 F2E : ff;
 F2F : ff;
 F30 : ff;
 F31 : ff;
 F32 : ff;
 F33 : ff;
 F34 : ff;
 F35 : ff;
 F36 : ff;
 F37 : ff;
 F38 : ff;
 F39 : ff;
 F3A : ff;
 F3B : ff;
 F3C : ff;
 F3D : ff;
 F3E : ff;
 F3F : ff;
 F40 : ff;
 F41 : ff;
 F42 : ff;
 F43 : ff;
 F44 : ff;
 F45 : ff;
 F46 : ff;
 F47 : ff;
 F48 : ff;
 F49 : ff;
 F4A : ff;
 F4B : ff;
 F4C : ff;
 F4D : ff;
 F4E : ff;
 F4F : ff;
 F50 : ff;
 F51 : ff;
 F52 : ff;
 F53 : ff;
 F54 : ff;
 F55 : ff;
 F56 : ff;
 F57 : ff;
 F58 : ff;
 F59 : ff;
 F5A : ff;
 F5B : ff;
 F5C : ff;
 F5D : ff;
 F5E : ff;
 F5F : ff;
 F60 : ff;
 F61 : ff;
 F62 : ff;
 F63 : ff;
 F64 : ff;
 F65 : ff;
 F66 : ff;
 F67 : ff;
 F68 : ff;
 F69 : ff;
 F6A : ff;
 F6B : ff;
 F6C : ff;
 F6D : ff;
 F6E : ff;
 F6F : ff;
 F70 : ff;
 F71 : ff;
 F72 : ff;
 F73 : ff;
 F74 : ff;
 F75 : ff;
 F76 : ff;
 F77 : ff;
 F78 : ff;
 F79 : ff;
 F7A : ff;
 F7B : ff;
 F7C : ff;
 F7D : ff;
 F7E : ff;
 F7F : ff;
 F80 : ff;
 F81 : ff;
 F82 : ff;
 F83 : ff;
 F84 : ff;
 F85 : ff;
 F86 : ff;
 F87 : ff;
 F88 : ff;
 F89 : ff;
 F8A : ff;
 F8B : ff;
 F8C : ff;
 F8D : ff;
 F8E : ff;
 F8F : ff;
 F90 : ff;
 F91 : ff;
 F92 : ff;
 F93 : ff;
 F94 : ff;
 F95 : ff;
 F96 : ff;
 F97 : ff;
 F98 : ff;
 F99 : ff;
 F9A : ff;
 F9B : ff;
 F9C : ff;
 F9D : ff;
 F9E : ff;
 F9F : ff;
 FA0 : ff;
 FA1 : ff;
 FA2 : ff;
 FA3 : ff;
 FA4 : ff;
 FA5 : ff;
 FA6 : ff;
 FA7 : ff;
 FA8 : ff;
 FA9 : ff;
 FAA : ff;
 FAB : ff;
 FAC : ff;
 FAD : ff;
 FAE : ff;
 FAF : ff;
 FB0 : ff;
 FB1 : ff;
 FB2 : ff;
 FB3 : ff;
 FB4 : ff;
 FB5 : ff;
 FB6 : ff;
 FB7 : ff;
 FB8 : ff;
 FB9 : ff;
 FBA : ff;
 FBB : ff;
 FBC : ff;
 FBD : ff;
 FBE : ff;
 FBF : ff;
 FC0 : ff;
 FC1 : ff;
 FC2 : ff;
 FC3 : ff;
 FC4 : ff;
 FC5 : ff;
 FC6 : ff;
 FC7 : ff;
 FC8 : ff;
 FC9 : ff;
 FCA : ff;
 FCB : ff;
 FCC : ff;
 FCD : ff;
 FCE : ff;
 FCF : ff;
 FD0 : ff;
 FD1 : ff;
 FD2 : ff;
 FD3 : ff;
 FD4 : ff;
 FD5 : ff;
 FD6 : ff;
 FD7 : ff;
 FD8 : ff;
 FD9 : ff;
 FDA : ff;
 FDB : ff;
 FDC : ff;
 FDD : ff;
 FDE : ff;
 FDF : ff;
 FE0 : ff;
 FE1 : ff;
 FE2 : ff;
 FE3 : ff;
 FE4 : ff;
 FE5 : ff;
 FE6 : ff;
 FE7 : ff;
 FE8 : ff;
 FE9 : ff;
 FEA : ff;
 FEB : ff;
 FEC : ff;
 FED : ff;
 FEE : ff;
 FEF : ff;
 FF0 : ff;
 FF1 : ff;
 FF2 : ff;
 FF3 : ff;
 FF4 : ff;
 FF5 : ff;
 FF6 : ff;
 FF7 : ff;
 FF8 : ff;
 FF9 : ff;
 FFA : ff;
 FFB : ff;
 FFC : ff;
 FFD : ff;
 FFE : ff;
 FFF : ff;
1000 : 00;
1001 : 03;
1002 : 0f;
1003 : 1f;
1004 : 3f;
1005 : 3f;
1006 : 7f;
1007 : 7f;
1008 : 00;
1009 : 00;
100A : 00;
100B : 00;
100C : 00;
100D : 00;
100E : 00;
100F : 00;
1010 : 00;
1011 : c0;
1012 : f0;
1013 : f8;
1014 : f8;
1015 : fc;
1016 : fc;
1017 : fc;
1018 : 00;
1019 : 00;
101A : 00;
101B : 00;
101C : 00;
101D : 00;
101E : 00;
101F : 00;
1020 : 00;
1021 : 07;
1022 : 1f;
1023 : 3f;
1024 : 3f;
1025 : 0f;
1026 : 03;
1027 : 00;
1028 : 00;
1029 : 00;
102A : 00;
102B : 00;
102C : 00;
102D : 00;
102E : 00;
102F : 00;
1030 : 00;
1031 : 00;
1032 : 07;
1033 : 1f;
1034 : 3f;
1035 : 3f;
1036 : 7f;
1037 : 7f;
1038 : 00;
1039 : 00;
103A : 00;
103B : 00;
103C : 00;
103D : 00;
103E : 00;
103F : 00;
1040 : 7e;
1041 : 7e;
1042 : 7c;
1043 : 3c;
1044 : 38;
1045 : 18;
1046 : 00;
1047 : 00;
1048 : 00;
1049 : 00;
104A : 00;
104B : 00;
104C : 00;
104D : 00;
104E : 00;
104F : 00;
1050 : 00;
1051 : c0;
1052 : f0;
1053 : f8;
1054 : f8;
1055 : fc;
1056 : 7c;
1057 : 3c;
1058 : 00;
1059 : 00;
105A : 00;
105B : 00;
105C : 00;
105D : 00;
105E : 00;
105F : 00;
1060 : 00;
1061 : 07;
1062 : 07;
1063 : 03;
1064 : 01;
1065 : 00;
1066 : 00;
1067 : 00;
1068 : 00;
1069 : 00;
106A : 00;
106B : 00;
106C : 00;
106D : 00;
106E : 00;
106F : 00;
1070 : 00;
1071 : 00;
1072 : 07;
1073 : 1f;
1074 : 3f;
1075 : 3f;
1076 : 7e;
1077 : 7c;
1078 : 00;
1079 : 00;
107A : 00;
107B : 00;
107C : 00;
107D : 00;
107E : 00;
107F : 00;
1080 : 78;
1081 : 70;
1082 : 60;
1083 : 00;
1084 : 00;
1085 : 00;
1086 : 00;
1087 : 00;
1088 : 00;
1089 : 00;
108A : 00;
108B : 00;
108C : 00;
108D : 00;
108E : 00;
108F : 00;
1090 : 00;
1091 : 00;
1092 : 00;
1093 : 00;
1094 : 00;
1095 : 40;
1096 : f0;
1097 : f8;
1098 : 00;
1099 : 00;
109A : 00;
109B : 00;
109C : 00;
109D : 00;
109E : 00;
109F : 00;
10A0 : fe;
10A1 : 7f;
10A2 : 7f;
10A3 : 3f;
10A4 : 0e;
10A5 : 00;
10A6 : 00;
10A7 : 00;
10A8 : 00;
10A9 : 00;
10AA : 00;
10AB : 00;
10AC : 00;
10AD : 00;
10AE : 00;
10AF : 00;
10B0 : 00;
10B1 : 00;
10B2 : 00;
10B3 : 00;
10B4 : 00;
10B5 : 00;
10B6 : 00;
10B7 : e0;
10B8 : 00;
10B9 : 00;
10BA : 00;
10BB : 00;
10BC : 00;
10BD : 00;
10BE : 00;
10BF : 00;
10C0 : fc;
10C1 : ff;
10C2 : 7f;
10C3 : 3f;
10C4 : 0e;
10C5 : 00;
10C6 : 00;
10C7 : 00;
10C8 : 00;
10C9 : 00;
10CA : 00;
10CB : 00;
10CC : 00;
10CD : 00;
10CE : 00;
10CF : 00;
10D0 : f0;
10D1 : ff;
10D2 : ff;
10D3 : 7f;
10D4 : 1e;
10D5 : 00;
10D6 : 00;
10D7 : 00;
10D8 : 00;
10D9 : 00;
10DA : 00;
10DB : 00;
10DC : 00;
10DD : 00;
10DE : 00;
10DF : 00;
10E0 : 00;
10E1 : 0f;
10E2 : ff;
10E3 : ff;
10E4 : 7f;
10E5 : 1e;
10E6 : 00;
10E7 : 00;
10E8 : 00;
10E9 : 00;
10EA : 00;
10EB : 00;
10EC : 00;
10ED : 00;
10EE : 00;
10EF : 00;
10F0 : 00;
10F1 : 03;
10F2 : 0f;
10F3 : 7f;
10F4 : ff;
10F5 : 7e;
10F6 : 1c;
10F7 : 00;
10F8 : 00;
10F9 : 00;
10FA : 00;
10FB : 00;
10FC : 00;
10FD : 00;
10FE : 00;
10FF : 00;
1100 : 00;
1101 : 01;
1102 : 03;
1103 : 0f;
1104 : 1f;
1105 : 7f;
1106 : 7e;
1107 : 3c;
1108 : 00;
1109 : 00;
110A : 00;
110B : 00;
110C : 00;
110D : 00;
110E : 00;
110F : 00;
1110 : 00;
1111 : 01;
1112 : 03;
1113 : 07;
1114 : 07;
1115 : 0f;
1116 : 1f;
1117 : 0e;
1118 : 00;
1119 : 00;
111A : 00;
111B : 00;
111C : 00;
111D : 00;
111E : 00;
111F : 00;
1120 : 00;
1121 : 00;
1122 : 01;
1123 : 03;
1124 : 03;
1125 : 03;
1126 : 07;
1127 : 02;
1128 : 00;
1129 : 00;
112A : 00;
112B : 00;
112C : 00;
112D : 00;
112E : 00;
112F : 00;
1130 : 00;
1131 : 00;
1132 : 01;
1133 : 01;
1134 : 01;
1135 : 01;
1136 : 01;
1137 : 01;
1138 : 00;
1139 : 00;
113A : 00;
113B : 00;
113C : 00;
113D : 00;
113E : 00;
113F : 00;
1140 : 00;
1141 : 00;
1142 : 00;
1143 : 00;
1144 : 00;
1145 : 00;
1146 : 04;
1147 : 02;
1148 : 00;
1149 : 00;
114A : 00;
114B : 00;
114C : 00;
114D : 00;
114E : 00;
114F : 00;
1150 : 00;
1151 : 00;
1152 : 00;
1153 : 00;
1154 : 00;
1155 : 00;
1156 : 20;
1157 : 48;
1158 : 00;
1159 : 00;
115A : 00;
115B : 00;
115C : 00;
115D : 00;
115E : 00;
115F : 00;
1160 : 10;
1161 : 08;
1162 : 00;
1163 : 30;
1164 : 00;
1165 : 08;
1166 : 12;
1167 : 04;
1168 : 00;
1169 : 00;
116A : 00;
116B : 00;
116C : 00;
116D : 00;
116E : 00;
116F : 00;
1170 : 10;
1171 : 00;
1172 : 0c;
1173 : 00;
1174 : 10;
1175 : 08;
1176 : 40;
1177 : 20;
1178 : 00;
1179 : 00;
117A : 00;
117B : 00;
117C : 00;
117D : 00;
117E : 00;
117F : 00;
1180 : 00;
1181 : 00;
1182 : 03;
1183 : 03;
1184 : 01;
1185 : 21;
1186 : 21;
1187 : 73;
1188 : 00;
1189 : 00;
118A : 03;
118B : 03;
118C : 13;
118D : 3f;
118E : 3f;
118F : 7f;
1190 : 7f;
1191 : 7f;
1192 : 7f;
1193 : 7f;
1194 : 6e;
1195 : 46;
1196 : 00;
1197 : 00;
1198 : 7f;
1199 : 7f;
119A : 7f;
119B : 7f;
119C : 6e;
119D : 46;
119E : 00;
119F : 00;
11A0 : 7f;
11A1 : 7f;
11A2 : 7f;
11A3 : 7f;
11A4 : 7b;
11A5 : 31;
11A6 : 00;
11A7 : 00;
11A8 : 7f;
11A9 : 7f;
11AA : 7f;
11AB : 7f;
11AC : 7b;
11AD : 31;
11AE : 00;
11AF : 00;
11B0 : 00;
11B1 : 03;
11B2 : 0f;
11B3 : 1f;
11B4 : 27;
11B5 : 03;
11B6 : 03;
11B7 : 43;
11B8 : 00;
11B9 : 03;
11BA : 0f;
11BB : 1f;
11BC : 3f;
11BD : 3f;
11BE : 0f;
11BF : 4f;
11C0 : 00;
11C1 : c0;
11C2 : f0;
11C3 : f8;
11C4 : 9c;
11C5 : 0c;
11C6 : 0c;
11C7 : 0e;
11C8 : 00;
11C9 : c0;
11CA : f0;
11CB : f8;
11CC : fc;
11CD : fc;
11CE : 3c;
11CF : 3e;
11D0 : 67;
11D1 : 7f;
11D2 : 7f;
11D3 : 7f;
11D4 : 6e;
11D5 : 46;
11D6 : 00;
11D7 : 00;
11D8 : 7f;
11D9 : 7f;
11DA : 7f;
11DB : 7f;
11DC : 6e;
11DD : 46;
11DE : 00;
11DF : 00;
11E0 : 67;
11E1 : 7f;
11E2 : 7f;
11E3 : 7f;
11E4 : 7b;
11E5 : 31;
11E6 : 00;
11E7 : 00;
11E8 : 7f;
11E9 : 7f;
11EA : 7f;
11EB : 7f;
11EC : 7b;
11ED : 31;
11EE : 00;
11EF : 00;
11F0 : 9e;
11F1 : fe;
11F2 : fe;
11F3 : fe;
11F4 : 76;
11F5 : 62;
11F6 : 00;
11F7 : 00;
11F8 : fe;
11F9 : fe;
11FA : fe;
11FB : fe;
11FC : 76;
11FD : 62;
11FE : 00;
11FF : 00;
1200 : 9e;
1201 : fe;
1202 : fe;
1203 : fe;
1204 : de;
1205 : 8c;
1206 : 00;
1207 : 00;
1208 : fe;
1209 : fe;
120A : fe;
120B : fe;
120C : de;
120D : 8c;
120E : 00;
120F : 00;
1210 : 00;
1211 : 03;
1212 : 0f;
1213 : 1f;
1214 : 3f;
1215 : 33;
1216 : 21;
1217 : 61;
1218 : 00;
1219 : 03;
121A : 0f;
121B : 1f;
121C : 3f;
121D : 3f;
121E : 3f;
121F : 7f;
1220 : 61;
1221 : 73;
1222 : 7f;
1223 : 7f;
1224 : 6e;
1225 : 46;
1226 : 00;
1227 : 00;
1228 : 73;
1229 : 73;
122A : 7f;
122B : 7f;
122C : 6e;
122D : 46;
122E : 00;
122F : 00;
1230 : 61;
1231 : 73;
1232 : 7f;
1233 : 7f;
1234 : 77;
1235 : 23;
1236 : 00;
1237 : 00;
1238 : 73;
1239 : 73;
123A : 7f;
123B : 7f;
123C : 77;
123D : 23;
123E : 00;
123F : 00;
1240 : 00;
1241 : 03;
1242 : 0f;
1243 : 1f;
1244 : 3f;
1245 : 3f;
1246 : 3f;
1247 : 7f;
1248 : 00;
1249 : 00;
124A : 00;
124B : 00;
124C : 00;
124D : 06;
124E : 06;
124F : 00;
1250 : 7f;
1251 : 7f;
1252 : 7f;
1253 : 7f;
1254 : 6e;
1255 : 46;
1256 : 00;
1257 : 00;
1258 : 00;
1259 : 19;
125A : 26;
125B : 00;
125C : 00;
125D : 00;
125E : 00;
125F : 00;
1260 : 7f;
1261 : 7f;
1262 : 7f;
1263 : 7f;
1264 : 7b;
1265 : 31;
1266 : 00;
1267 : 00;
1268 : 00;
1269 : 19;
126A : 26;
126B : 00;
126C : 00;
126D : 00;
126E : 00;
126F : 00;
1270 : 00;
1271 : 00;
1272 : 00;
1273 : 00;
1274 : 00;
1275 : 00;
1276 : 00;
1277 : 00;
1278 : 00;
1279 : 0c;
127A : 12;
127B : 12;
127C : 1e;
127D : 0c;
127E : 00;
127F : 00;
1280 : 00;
1281 : 00;
1282 : 00;
1283 : 00;
1284 : 00;
1285 : 00;
1286 : 00;
1287 : 00;
1288 : 00;
1289 : 00;
128A : 00;
128B : 00;
128C : 00;
128D : 38;
128E : 4d;
128F : 4d;
1290 : 00;
1291 : 00;
1292 : 00;
1293 : 00;
1294 : 00;
1295 : 00;
1296 : 00;
1297 : 00;
1298 : 00;
1299 : 00;
129A : 00;
129B : 00;
129C : 00;
129D : e0;
129E : 30;
129F : 30;
12A0 : 00;
12A1 : 00;
12A2 : 00;
12A3 : 00;
12A4 : 00;
12A5 : 00;
12A6 : 00;
12A7 : 00;
12A8 : 38;
12A9 : 00;
12AA : 00;
12AB : 00;
12AC : 00;
12AD : 00;
12AE : 00;
12AF : 00;
12B0 : 00;
12B1 : 00;
12B2 : 00;
12B3 : 00;
12B4 : 00;
12B5 : 00;
12B6 : 00;
12B7 : 00;
12B8 : e0;
12B9 : 00;
12BA : 00;
12BB : 00;
12BC : 00;
12BD : 00;
12BE : 00;
12BF : 00;
12C0 : 00;
12C1 : 00;
12C2 : 00;
12C3 : 00;
12C4 : 00;
12C5 : 00;
12C6 : 00;
12C7 : 00;
12C8 : 00;
12C9 : 00;
12CA : 00;
12CB : 00;
12CC : 00;
12CD : 00;
12CE : 0c;
12CF : 1e;
12D0 : 00;
12D1 : 00;
12D2 : 00;
12D3 : 00;
12D4 : 00;
12D5 : 00;
12D6 : 00;
12D7 : 00;
12D8 : 12;
12D9 : 12;
12DA : 0c;
12DB : 00;
12DC : 00;
12DD : 00;
12DE : 00;
12DF : 00;
12E0 : 00;
12E1 : 00;
12E2 : 00;
12E3 : 00;
12E4 : 00;
12E5 : 00;
12E6 : 00;
12E7 : 00;
12E8 : 00;
12E9 : 00;
12EA : 00;
12EB : 11;
12EC : 32;
12ED : 12;
12EE : 12;
12EF : 12;
12F0 : 00;
12F1 : 00;
12F2 : 00;
12F3 : 00;
12F4 : 00;
12F5 : 00;
12F6 : 00;
12F7 : 00;
12F8 : 00;
12F9 : 00;
12FA : 00;
12FB : 8c;
12FC : 52;
12FD : 52;
12FE : 52;
12FF : 52;
1300 : 00;
1301 : 00;
1302 : 00;
1303 : 00;
1304 : 00;
1305 : 00;
1306 : 00;
1307 : 00;
1308 : 12;
1309 : 39;
130A : 00;
130B : 00;
130C : 00;
130D : 00;
130E : 00;
130F : 00;
1310 : 00;
1311 : 00;
1312 : 00;
1313 : 00;
1314 : 00;
1315 : 00;
1316 : 00;
1317 : 00;
1318 : 52;
1319 : 8c;
131A : 00;
131B : 00;
131C : 00;
131D : 00;
131E : 00;
131F : 00;
1320 : 00;
1321 : 00;
1322 : 00;
1323 : 00;
1324 : 00;
1325 : 00;
1326 : 00;
1327 : 00;
1328 : 00;
1329 : 00;
132A : 00;
132B : 71;
132C : 8a;
132D : 0a;
132E : 12;
132F : 22;
1330 : 00;
1331 : 00;
1332 : 00;
1333 : 00;
1334 : 00;
1335 : 00;
1336 : 00;
1337 : 00;
1338 : 42;
1339 : f9;
133A : 00;
133B : 00;
133C : 00;
133D : 00;
133E : 00;
133F : 00;
1340 : 00;
1341 : 00;
1342 : 00;
1343 : 00;
1344 : 00;
1345 : 00;
1346 : 00;
1347 : 00;
1348 : 00;
1349 : 00;
134A : 00;
134B : 31;
134C : 4a;
134D : 0a;
134E : 32;
134F : 0a;
1350 : 00;
1351 : 00;
1352 : 00;
1353 : 00;
1354 : 00;
1355 : 00;
1356 : 00;
1357 : 00;
1358 : 4a;
1359 : 31;
135A : 00;
135B : 00;
135C : 00;
135D : 00;
135E : 00;
135F : 00;
1360 : 00;
1361 : 00;
1362 : 00;
1363 : 00;
1364 : 00;
1365 : 00;
1366 : 00;
1367 : 00;
1368 : 00;
1369 : 00;
136A : 00;
136B : 11;
136C : 32;
136D : 52;
136E : 92;
136F : fa;
1370 : 00;
1371 : 00;
1372 : 00;
1373 : 00;
1374 : 00;
1375 : 00;
1376 : 00;
1377 : 00;
1378 : 12;
1379 : 11;
137A : 00;
137B : 00;
137C : 00;
137D : 00;
137E : 00;
137F : 00;
1380 : 00;
1381 : 00;
1382 : 00;
1383 : 00;
1384 : 00;
1385 : 00;
1386 : 00;
1387 : 00;
1388 : 00;
1389 : 00;
138A : 00;
138B : 71;
138C : 42;
138D : 42;
138E : 72;
138F : 0a;
1390 : 00;
1391 : 00;
1392 : 00;
1393 : 00;
1394 : 00;
1395 : 00;
1396 : 00;
1397 : 00;
1398 : 0a;
1399 : 71;
139A : 00;
139B : 00;
139C : 00;
139D : 00;
139E : 00;
139F : 00;
13A0 : 00;
13A1 : 00;
13A2 : 00;
13A3 : 00;
13A4 : 00;
13A5 : 00;
13A6 : 00;
13A7 : 00;
13A8 : 00;
13A9 : 00;
13AA : 00;
13AB : 71;
13AC : 0a;
13AD : 12;
13AE : 12;
13AF : 22;
13B0 : 00;
13B1 : 00;
13B2 : 00;
13B3 : 00;
13B4 : 00;
13B5 : 00;
13B6 : 00;
13B7 : 00;
13B8 : 22;
13B9 : 21;
13BA : 00;
13BB : 00;
13BC : 00;
13BD : 00;
13BE : 00;
13BF : 00;
13C0 : 00;
13C1 : 00;
13C2 : 00;
13C3 : 00;
13C4 : 00;
13C5 : 00;
13C6 : 00;
13C7 : 00;
13C8 : 00;
13C9 : 00;
13CA : 00;
13CB : 71;
13CC : 8a;
13CD : 8a;
13CE : 72;
13CF : 8a;
13D0 : 00;
13D1 : 00;
13D2 : 00;
13D3 : 00;
13D4 : 00;
13D5 : 00;
13D6 : 00;
13D7 : 00;
13D8 : 8a;
13D9 : 71;
13DA : 00;
13DB : 00;
13DC : 00;
13DD : 00;
13DE : 00;
13DF : 00;
13E0 : 00;
13E1 : 00;
13E2 : 00;
13E3 : 00;
13E4 : 00;
13E5 : 00;
13E6 : 00;
13E7 : 00;
13E8 : 00;
13E9 : 00;
13EA : 00;
13EB : 98;
13EC : a5;
13ED : a5;
13EE : a5;
13EF : a5;
13F0 : 00;
13F1 : 00;
13F2 : 00;
13F3 : 00;
13F4 : 00;
13F5 : 00;
13F6 : 00;
13F7 : 00;
13F8 : 00;
13F9 : 00;
13FA : 00;
13FB : c6;
13FC : 29;
13FD : 29;
13FE : 29;
13FF : 29;
1400 : 00;
1401 : 00;
1402 : 00;
1403 : 00;
1404 : 00;
1405 : 00;
1406 : 00;
1407 : 00;
1408 : a5;
1409 : 98;
140A : 00;
140B : 00;
140C : 00;
140D : 00;
140E : 00;
140F : 00;
1410 : 00;
1411 : 00;
1412 : 00;
1413 : 00;
1414 : 00;
1415 : 00;
1416 : 00;
1417 : 00;
1418 : 29;
1419 : c6;
141A : 00;
141B : 00;
141C : 00;
141D : 00;
141E : 00;
141F : 00;
1420 : 00;
1421 : 00;
1422 : 00;
1423 : 00;
1424 : 00;
1425 : 00;
1426 : 00;
1427 : 00;
1428 : 00;
1429 : 00;
142A : 00;
142B : 9c;
142C : a1;
142D : a1;
142E : bd;
142F : a5;
1430 : 00;
1431 : 00;
1432 : 00;
1433 : 00;
1434 : 00;
1435 : 00;
1436 : 00;
1437 : 00;
1438 : a5;
1439 : 98;
143A : 00;
143B : 00;
143C : 00;
143D : 00;
143E : 00;
143F : 00;
1440 : 00;
1441 : 00;
1442 : 00;
1443 : 00;
1444 : 00;
1445 : 00;
1446 : 00;
1447 : 00;
1448 : 00;
1449 : 00;
144A : 00;
144B : 62;
144C : 95;
144D : 15;
144E : 25;
144F : 45;
1450 : 00;
1451 : 00;
1452 : 00;
1453 : 00;
1454 : 00;
1455 : 00;
1456 : 00;
1457 : 00;
1458 : 00;
1459 : 00;
145A : 00;
145B : 22;
145C : 55;
145D : 55;
145E : 55;
145F : 55;
1460 : 00;
1461 : 00;
1462 : 00;
1463 : 00;
1464 : 00;
1465 : 00;
1466 : 00;
1467 : 00;
1468 : 85;
1469 : f2;
146A : 00;
146B : 00;
146C : 00;
146D : 00;
146E : 00;
146F : 00;
1470 : 00;
1471 : 00;
1472 : 00;
1473 : 00;
1474 : 00;
1475 : 00;
1476 : 00;
1477 : 00;
1478 : 55;
1479 : 22;
147A : 00;
147B : 00;
147C : 00;
147D : 00;
147E : 00;
147F : 00;
1480 : 00;
1481 : 00;
1482 : 00;
1483 : 00;
1484 : 00;
1485 : 00;
1486 : 00;
1487 : 00;
1488 : 00;
1489 : 00;
148A : 00;
148B : 62;
148C : 95;
148D : 15;
148E : 65;
148F : 15;
1490 : 00;
1491 : 00;
1492 : 00;
1493 : 00;
1494 : 00;
1495 : 00;
1496 : 00;
1497 : 00;
1498 : 95;
1499 : 62;
149A : 00;
149B : 00;
149C : 00;
149D : 00;
149E : 00;
149F : 00;
14A0 : 00;
14A1 : 00;
14A2 : 00;
14A3 : 00;
14A4 : 00;
14A5 : 00;
14A6 : 00;
14A7 : 00;
14A8 : 00;
14A9 : 00;
14AA : 00;
14AB : e2;
14AC : 85;
14AD : 85;
14AE : e5;
14AF : 15;
14B0 : 00;
14B1 : 00;
14B2 : 00;
14B3 : 00;
14B4 : 00;
14B5 : 00;
14B6 : 00;
14B7 : 00;
14B8 : 15;
14B9 : e2;
14BA : 00;
14BB : 00;
14BC : 00;
14BD : 00;
14BE : 00;
14BF : 00;
14C0 : 00;
14C1 : 00;
14C2 : 00;
14C3 : 00;
14C4 : 00;
14C5 : 00;
14C6 : 00;
14C7 : 00;
14C8 : 00;
14C9 : 00;
14CA : 00;
14CB : 00;
14CC : 00;
14CD : 00;
14CE : 00;
14CF : 00;
14D0 : 00;
14D1 : 00;
14D2 : 00;
14D3 : 01;
14D4 : 03;
14D5 : 07;
14D6 : 0f;
14D7 : 1f;
14D8 : 00;
14D9 : 00;
14DA : 00;
14DB : 00;
14DC : 00;
14DD : 00;
14DE : 00;
14DF : 00;
14E0 : 00;
14E1 : 0f;
14E2 : 7f;
14E3 : ff;
14E4 : ff;
14E5 : ff;
14E6 : ff;
14E7 : ff;
14E8 : 00;
14E9 : 00;
14EA : 00;
14EB : 00;
14EC : 00;
14ED : 00;
14EE : 00;
14EF : 00;
14F0 : 1f;
14F1 : 3f;
14F2 : 3f;
14F3 : 3f;
14F4 : 7f;
14F5 : 7f;
14F6 : 7f;
14F7 : 7f;
14F8 : 00;
14F9 : 00;
14FA : 00;
14FB : 00;
14FC : 00;
14FD : 00;
14FE : 00;
14FF : 00;
1500 : ff;
1501 : ff;
1502 : ff;
1503 : ff;
1504 : ff;
1505 : ff;
1506 : ff;
1507 : ff;
1508 : 00;
1509 : 00;
150A : 00;
150B : 00;
150C : 00;
150D : 00;
150E : 00;
150F : 00;
1510 : ff;
1511 : ff;
1512 : ff;
1513 : ff;
1514 : ff;
1515 : ff;
1516 : ff;
1517 : fe;
1518 : 00;
1519 : 00;
151A : 00;
151B : 00;
151C : 00;
151D : 00;
151E : 00;
151F : 00;
1520 : 00;
1521 : 00;
1522 : 00;
1523 : 80;
1524 : c0;
1525 : e0;
1526 : f0;
1527 : f0;
1528 : 00;
1529 : 00;
152A : 00;
152B : 00;
152C : 00;
152D : 00;
152E : 00;
152F : 00;
1530 : ff;
1531 : ff;
1532 : fe;
1533 : fc;
1534 : f0;
1535 : e0;
1536 : 80;
1537 : 00;
1538 : 00;
1539 : 00;
153A : 00;
153B : 00;
153C : 00;
153D : 00;
153E : 00;
153F : 00;
1540 : c0;
1541 : 80;
1542 : 00;
1543 : 00;
1544 : 00;
1545 : 00;
1546 : 00;
1547 : 00;
1548 : 00;
1549 : 00;
154A : 00;
154B : 00;
154C : 00;
154D : 00;
154E : 00;
154F : 00;
1550 : 00;
1551 : f0;
1552 : fe;
1553 : fe;
1554 : fe;
1555 : fc;
1556 : f8;
1557 : f8;
1558 : 00;
1559 : 00;
155A : 00;
155B : 00;
155C : 00;
155D : 00;
155E : 00;
155F : 00;
1560 : f0;
1561 : e0;
1562 : e0;
1563 : c0;
1564 : 80;
1565 : 80;
1566 : 00;
1567 : 00;
1568 : 00;
1569 : 00;
156A : 00;
156B : 00;
156C : 00;
156D : 00;
156E : 00;
156F : 00;
1570 : 00;
1571 : 00;
1572 : 00;
1573 : 00;
1574 : 00;
1575 : 00;
1576 : 00;
1577 : 04;
1578 : 00;
1579 : 00;
157A : 00;
157B : 00;
157C : 00;
157D : 00;
157E : 00;
157F : 04;
1580 : 06;
1581 : 06;
1582 : 07;
1583 : 07;
1584 : 07;
1585 : 07;
1586 : 00;
1587 : 00;
1588 : 06;
1589 : 06;
158A : 07;
158B : 07;
158C : 07;
158D : 07;
158E : 00;
158F : 00;
1590 : 00;
1591 : 00;
1592 : 00;
1593 : 00;
1594 : 00;
1595 : 00;
1596 : 00;
1597 : 10;
1598 : 00;
1599 : 00;
159A : 00;
159B : 00;
159C : 00;
159D : 00;
159E : 00;
159F : 10;
15A0 : 1c;
15A1 : 1e;
15A2 : 1f;
15A3 : 1f;
15A4 : 1f;
15A5 : 1f;
15A6 : 00;
15A7 : 00;
15A8 : 1c;
15A9 : 1e;
15AA : 1f;
15AB : 1f;
15AC : 1f;
15AD : 1f;
15AE : 00;
15AF : 00;
15B0 : 00;
15B1 : 00;
15B2 : 00;
15B3 : 00;
15B4 : 00;
15B5 : 00;
15B6 : 00;
15B7 : c0;
15B8 : 00;
15B9 : 00;
15BA : 00;
15BB : 00;
15BC : 00;
15BD : 00;
15BE : 00;
15BF : c0;
15C0 : f0;
15C1 : fc;
15C2 : ff;
15C3 : ff;
15C4 : ff;
15C5 : ff;
15C6 : 00;
15C7 : 00;
15C8 : f0;
15C9 : fc;
15CA : ff;
15CB : ff;
15CC : ff;
15CD : ff;
15CE : 00;
15CF : 00;
15D0 : 00;
15D1 : 00;
15D2 : 01;
15D3 : 03;
15D4 : 0f;
15D5 : 0f;
15D6 : 00;
15D7 : 00;
15D8 : 00;
15D9 : 00;
15DA : 01;
15DB : 03;
15DC : 0f;
15DD : 0f;
15DE : 00;
15DF : 00;
15E0 : fc;
15E1 : fc;
15E2 : fc;
15E3 : fc;
15E4 : f8;
15E5 : fc;
15E6 : 3c;
15E7 : 00;
15E8 : f8;
15E9 : f0;
15EA : e0;
15EB : f0;
15EC : e0;
15ED : c0;
15EE : 00;
15EF : 00;
15F0 : 04;
15F1 : 0c;
15F2 : 1c;
15F3 : 0c;
15F4 : 18;
15F5 : 3c;
15F6 : 3c;
15F7 : 00;
15F8 : 00;
15F9 : 00;
15FA : 00;
15FB : 00;
15FC : 00;
15FD : 00;
15FE : 00;
15FF : 00;
1600 : 00;
1601 : 03;
1602 : 0f;
1603 : 13;
1604 : 21;
1605 : 21;
1606 : 21;
1607 : 73;
1608 : 00;
1609 : 03;
160A : 0f;
160B : 1f;
160C : 3f;
160D : 3f;
160E : 39;
160F : 7b;
1610 : 00;
1611 : c0;
1612 : f0;
1613 : c8;
1614 : 84;
1615 : 84;
1616 : 84;
1617 : ce;
1618 : 00;
1619 : c0;
161A : f0;
161B : f8;
161C : fc;
161D : fc;
161E : e4;
161F : ee;
1620 : 94;
1621 : ea;
1622 : de;
1623 : ee;
1624 : de;
1625 : 66;
1626 : 42;
1627 : 00;
1628 : fe;
1629 : fe;
162A : fe;
162B : fe;
162C : fe;
162D : 66;
162E : 42;
162F : 00;
1630 : 94;
1631 : ea;
1632 : de;
1633 : ee;
1634 : de;
1635 : ce;
1636 : 8c;
1637 : 00;
1638 : fe;
1639 : fe;
163A : fe;
163B : fe;
163C : fe;
163D : de;
163E : 8c;
163F : 00;
1640 : 00;
1641 : 00;
1642 : 00;
1643 : 00;
1644 : 00;
1645 : 00;
1646 : 00;
1647 : 01;
1648 : 00;
1649 : 00;
164A : 00;
164B : 00;
164C : 00;
164D : 00;
164E : 00;
164F : 00;
1650 : 00;
1651 : 00;
1652 : 00;
1653 : 00;
1654 : 00;
1655 : 36;
1656 : 36;
1657 : 90;
1658 : 00;
1659 : 00;
165A : 00;
165B : 00;
165C : 6c;
165D : fe;
165E : fe;
165F : fc;
1660 : 01;
1661 : 03;
1662 : 07;
1663 : 07;
1664 : 1f;
1665 : 1f;
1666 : 1c;
1667 : 00;
1668 : 00;
1669 : 00;
166A : 00;
166B : 00;
166C : 00;
166D : 00;
166E : 00;
166F : 00;
1670 : f8;
1671 : f8;
1672 : f8;
1673 : f8;
1674 : fe;
1675 : fe;
1676 : 0e;
1677 : 00;
1678 : 00;
1679 : 00;
167A : 00;
167B : 00;
167C : 00;
167D : 00;
167E : 00;
167F : 00;
1680 : 07;
1681 : 0f;
1682 : 1f;
1683 : 1f;
1684 : 3f;
1685 : 3f;
1686 : 38;
1687 : 00;
1688 : 00;
1689 : 00;
168A : 00;
168B : 00;
168C : 00;
168D : 00;
168E : 00;
168F : 00;
1690 : f8;
1691 : f0;
1692 : f0;
1693 : e0;
1694 : f8;
1695 : f8;
1696 : 38;
1697 : 00;
1698 : 00;
1699 : 00;
169A : 00;
169B : 00;
169C : 00;
169D : 00;
169E : 00;
169F : 00;
16A0 : 00;
16A1 : 1f;
16A2 : 7f;
16A3 : 3f;
16A4 : 0f;
16A5 : 07;
16A6 : 00;
16A7 : 00;
16A8 : 00;
16A9 : 1f;
16AA : 7f;
16AB : 3f;
16AC : 0f;
16AD : 07;
16AE : 00;
16AF : 00;
16B0 : 00;
16B1 : 00;
16B2 : c0;
16B3 : f0;
16B4 : f8;
16B5 : f8;
16B6 : e0;
16B7 : 00;
16B8 : 00;
16B9 : 00;
16BA : c0;
16BB : f0;
16BC : f8;
16BD : f8;
16BE : e0;
16BF : 00;
16C0 : 00;
16C1 : 00;
16C2 : 00;
16C3 : 00;
16C4 : 00;
16C5 : 00;
16C6 : 00;
16C7 : 00;
16C8 : 00;
16C9 : 00;
16CA : 00;
16CB : 00;
16CC : 00;
16CD : 00;
16CE : 00;
16CF : 00;
16D0 : 00;
16D1 : 00;
16D2 : 00;
16D3 : 00;
16D4 : 00;
16D5 : 00;
16D6 : 00;
16D7 : 00;
16D8 : 00;
16D9 : 00;
16DA : 00;
16DB : 00;
16DC : 00;
16DD : 00;
16DE : 00;
16DF : 00;
16E0 : 00;
16E1 : 00;
16E2 : 00;
16E3 : 00;
16E4 : 00;
16E5 : 00;
16E6 : 00;
16E7 : 00;
16E8 : 00;
16E9 : 00;
16EA : 00;
16EB : 00;
16EC : 00;
16ED : 00;
16EE : 00;
16EF : 00;
16F0 : 00;
16F1 : 00;
16F2 : 00;
16F3 : 00;
16F4 : 00;
16F5 : 00;
16F6 : 00;
16F7 : 00;
16F8 : 00;
16F9 : 00;
16FA : 00;
16FB : 00;
16FC : 00;
16FD : 00;
16FE : 00;
16FF : 00;
1700 : ff;
1701 : ff;
1702 : ff;
1703 : ff;
1704 : ff;
1705 : ff;
1706 : ff;
1707 : ff;
1708 : ff;
1709 : ff;
170A : ff;
170B : ff;
170C : ff;
170D : ff;
170E : ff;
170F : ff;
1710 : ff;
1711 : ff;
1712 : ff;
1713 : ff;
1714 : ff;
1715 : ff;
1716 : ff;
1717 : ff;
1718 : ff;
1719 : ff;
171A : ff;
171B : ff;
171C : ff;
171D : ff;
171E : ff;
171F : ff;
1720 : ff;
1721 : ff;
1722 : ff;
1723 : ff;
1724 : ff;
1725 : ff;
1726 : ff;
1727 : ff;
1728 : ff;
1729 : ff;
172A : ff;
172B : ff;
172C : ff;
172D : ff;
172E : ff;
172F : ff;
1730 : ff;
1731 : ff;
1732 : ff;
1733 : ff;
1734 : ff;
1735 : ff;
1736 : ff;
1737 : ff;
1738 : ff;
1739 : ff;
173A : ff;
173B : ff;
173C : ff;
173D : ff;
173E : ff;
173F : ff;
1740 : ff;
1741 : ff;
1742 : ff;
1743 : ff;
1744 : ff;
1745 : ff;
1746 : ff;
1747 : ff;
1748 : ff;
1749 : ff;
174A : ff;
174B : ff;
174C : ff;
174D : ff;
174E : ff;
174F : ff;
1750 : ff;
1751 : ff;
1752 : ff;
1753 : ff;
1754 : ff;
1755 : ff;
1756 : ff;
1757 : ff;
1758 : ff;
1759 : ff;
175A : ff;
175B : ff;
175C : ff;
175D : ff;
175E : ff;
175F : ff;
1760 : ff;
1761 : ff;
1762 : ff;
1763 : ff;
1764 : ff;
1765 : ff;
1766 : ff;
1767 : ff;
1768 : ff;
1769 : ff;
176A : ff;
176B : ff;
176C : ff;
176D : ff;
176E : ff;
176F : ff;
1770 : ff;
1771 : ff;
1772 : ff;
1773 : ff;
1774 : ff;
1775 : ff;
1776 : ff;
1777 : ff;
1778 : ff;
1779 : ff;
177A : ff;
177B : ff;
177C : ff;
177D : ff;
177E : ff;
177F : ff;
1780 : ff;
1781 : ff;
1782 : ff;
1783 : ff;
1784 : ff;
1785 : ff;
1786 : ff;
1787 : ff;
1788 : ff;
1789 : ff;
178A : ff;
178B : ff;
178C : ff;
178D : ff;
178E : ff;
178F : ff;
1790 : ff;
1791 : ff;
1792 : ff;
1793 : ff;
1794 : ff;
1795 : ff;
1796 : ff;
1797 : ff;
1798 : ff;
1799 : ff;
179A : ff;
179B : ff;
179C : ff;
179D : ff;
179E : ff;
179F : ff;
17A0 : ff;
17A1 : ff;
17A2 : ff;
17A3 : ff;
17A4 : ff;
17A5 : ff;
17A6 : ff;
17A7 : ff;
17A8 : ff;
17A9 : ff;
17AA : ff;
17AB : ff;
17AC : ff;
17AD : ff;
17AE : ff;
17AF : ff;
17B0 : ff;
17B1 : ff;
17B2 : ff;
17B3 : ff;
17B4 : ff;
17B5 : ff;
17B6 : ff;
17B7 : ff;
17B8 : ff;
17B9 : ff;
17BA : ff;
17BB : ff;
17BC : ff;
17BD : ff;
17BE : ff;
17BF : ff;
17C0 : ff;
17C1 : ff;
17C2 : ff;
17C3 : ff;
17C4 : ff;
17C5 : ff;
17C6 : ff;
17C7 : ff;
17C8 : ff;
17C9 : ff;
17CA : ff;
17CB : ff;
17CC : ff;
17CD : ff;
17CE : ff;
17CF : ff;
17D0 : ff;
17D1 : ff;
17D2 : ff;
17D3 : ff;
17D4 : ff;
17D5 : ff;
17D6 : ff;
17D7 : ff;
17D8 : ff;
17D9 : ff;
17DA : ff;
17DB : ff;
17DC : ff;
17DD : ff;
17DE : ff;
17DF : ff;
17E0 : ff;
17E1 : ff;
17E2 : ff;
17E3 : ff;
17E4 : ff;
17E5 : ff;
17E6 : ff;
17E7 : ff;
17E8 : ff;
17E9 : ff;
17EA : ff;
17EB : ff;
17EC : ff;
17ED : ff;
17EE : ff;
17EF : ff;
17F0 : ff;
17F1 : ff;
17F2 : ff;
17F3 : ff;
17F4 : ff;
17F5 : ff;
17F6 : ff;
17F7 : ff;
17F8 : ff;
17F9 : ff;
17FA : ff;
17FB : ff;
17FC : ff;
17FD : ff;
17FE : ff;
17FF : ff;
1800 : ff;
1801 : ff;
1802 : ff;
1803 : ff;
1804 : ff;
1805 : ff;
1806 : ff;
1807 : ff;
1808 : ff;
1809 : ff;
180A : ff;
180B : ff;
180C : ff;
180D : ff;
180E : ff;
180F : ff;
1810 : ff;
1811 : ff;
1812 : ff;
1813 : ff;
1814 : ff;
1815 : ff;
1816 : ff;
1817 : ff;
1818 : ff;
1819 : ff;
181A : ff;
181B : ff;
181C : ff;
181D : ff;
181E : ff;
181F : ff;
1820 : ff;
1821 : ff;
1822 : ff;
1823 : ff;
1824 : ff;
1825 : ff;
1826 : ff;
1827 : ff;
1828 : ff;
1829 : ff;
182A : ff;
182B : ff;
182C : ff;
182D : ff;
182E : ff;
182F : ff;
1830 : ff;
1831 : ff;
1832 : ff;
1833 : ff;
1834 : ff;
1835 : ff;
1836 : ff;
1837 : ff;
1838 : ff;
1839 : ff;
183A : ff;
183B : ff;
183C : ff;
183D : ff;
183E : ff;
183F : ff;
1840 : ff;
1841 : ff;
1842 : ff;
1843 : ff;
1844 : ff;
1845 : ff;
1846 : ff;
1847 : ff;
1848 : ff;
1849 : ff;
184A : ff;
184B : ff;
184C : ff;
184D : ff;
184E : ff;
184F : ff;
1850 : ff;
1851 : ff;
1852 : ff;
1853 : ff;
1854 : ff;
1855 : ff;
1856 : ff;
1857 : ff;
1858 : ff;
1859 : ff;
185A : ff;
185B : ff;
185C : ff;
185D : ff;
185E : ff;
185F : ff;
1860 : ff;
1861 : ff;
1862 : ff;
1863 : ff;
1864 : ff;
1865 : ff;
1866 : ff;
1867 : ff;
1868 : ff;
1869 : ff;
186A : ff;
186B : ff;
186C : ff;
186D : ff;
186E : ff;
186F : ff;
1870 : ff;
1871 : ff;
1872 : ff;
1873 : ff;
1874 : ff;
1875 : ff;
1876 : ff;
1877 : ff;
1878 : ff;
1879 : ff;
187A : ff;
187B : ff;
187C : ff;
187D : ff;
187E : ff;
187F : ff;
1880 : ff;
1881 : ff;
1882 : ff;
1883 : ff;
1884 : ff;
1885 : ff;
1886 : ff;
1887 : ff;
1888 : ff;
1889 : ff;
188A : ff;
188B : ff;
188C : ff;
188D : ff;
188E : ff;
188F : ff;
1890 : ff;
1891 : ff;
1892 : ff;
1893 : ff;
1894 : ff;
1895 : ff;
1896 : ff;
1897 : ff;
1898 : ff;
1899 : ff;
189A : ff;
189B : ff;
189C : ff;
189D : ff;
189E : ff;
189F : ff;
18A0 : ff;
18A1 : ff;
18A2 : ff;
18A3 : ff;
18A4 : ff;
18A5 : ff;
18A6 : ff;
18A7 : ff;
18A8 : ff;
18A9 : ff;
18AA : ff;
18AB : ff;
18AC : ff;
18AD : ff;
18AE : ff;
18AF : ff;
18B0 : ff;
18B1 : ff;
18B2 : ff;
18B3 : ff;
18B4 : ff;
18B5 : ff;
18B6 : ff;
18B7 : ff;
18B8 : ff;
18B9 : ff;
18BA : ff;
18BB : ff;
18BC : ff;
18BD : ff;
18BE : ff;
18BF : ff;
18C0 : ff;
18C1 : ff;
18C2 : ff;
18C3 : ff;
18C4 : ff;
18C5 : ff;
18C6 : ff;
18C7 : ff;
18C8 : ff;
18C9 : ff;
18CA : ff;
18CB : ff;
18CC : ff;
18CD : ff;
18CE : ff;
18CF : ff;
18D0 : ff;
18D1 : ff;
18D2 : ff;
18D3 : ff;
18D4 : ff;
18D5 : ff;
18D6 : ff;
18D7 : ff;
18D8 : ff;
18D9 : ff;
18DA : ff;
18DB : ff;
18DC : ff;
18DD : ff;
18DE : ff;
18DF : ff;
18E0 : ff;
18E1 : ff;
18E2 : ff;
18E3 : ff;
18E4 : ff;
18E5 : ff;
18E6 : ff;
18E7 : ff;
18E8 : ff;
18E9 : ff;
18EA : ff;
18EB : ff;
18EC : ff;
18ED : ff;
18EE : ff;
18EF : ff;
18F0 : ff;
18F1 : ff;
18F2 : ff;
18F3 : ff;
18F4 : ff;
18F5 : ff;
18F6 : ff;
18F7 : ff;
18F8 : ff;
18F9 : ff;
18FA : ff;
18FB : ff;
18FC : ff;
18FD : ff;
18FE : ff;
18FF : ff;
1900 : 00;
1901 : 00;
1902 : 00;
1903 : 00;
1904 : 00;
1905 : 01;
1906 : 1e;
1907 : 3b;
1908 : 00;
1909 : 00;
190A : 00;
190B : 00;
190C : 00;
190D : 00;
190E : 00;
190F : 00;
1910 : 00;
1911 : 00;
1912 : 0c;
1913 : 3c;
1914 : d0;
1915 : 10;
1916 : 20;
1917 : 40;
1918 : 00;
1919 : 00;
191A : 00;
191B : 00;
191C : 00;
191D : 00;
191E : 00;
191F : 00;
1920 : 3e;
1921 : 2d;
1922 : 35;
1923 : 1d;
1924 : 01;
1925 : 00;
1926 : 00;
1927 : 00;
1928 : 00;
1929 : 00;
192A : 00;
192B : 00;
192C : 00;
192D : 00;
192E : 00;
192F : 00;
1930 : b0;
1931 : b8;
1932 : f8;
1933 : 78;
1934 : 98;
1935 : f0;
1936 : 00;
1937 : 00;
1938 : 00;
1939 : 00;
193A : 00;
193B : 00;
193C : 00;
193D : 00;
193E : 00;
193F : 00;
1940 : 00;
1941 : 00;
1942 : 07;
1943 : 03;
1944 : 0d;
1945 : 1e;
1946 : 17;
1947 : 1d;
1948 : 00;
1949 : 00;
194A : 00;
194B : 00;
194C : 00;
194D : 00;
194E : 00;
194F : 00;
1950 : 00;
1951 : 80;
1952 : 70;
1953 : e0;
1954 : d8;
1955 : bc;
1956 : 74;
1957 : dc;
1958 : 00;
1959 : 00;
195A : 00;
195B : 00;
195C : 00;
195D : 00;
195E : 00;
195F : 00;
1960 : 1f;
1961 : 0b;
1962 : 0f;
1963 : 05;
1964 : 03;
1965 : 01;
1966 : 00;
1967 : 00;
1968 : 00;
1969 : 00;
196A : 00;
196B : 00;
196C : 00;
196D : 00;
196E : 00;
196F : 00;
1970 : fc;
1971 : 68;
1972 : f8;
1973 : b0;
1974 : e0;
1975 : 80;
1976 : 00;
1977 : 00;
1978 : 00;
1979 : 00;
197A : 00;
197B : 00;
197C : 00;
197D : 00;
197E : 00;
197F : 00;
1980 : 00;
1981 : 00;
1982 : 00;
1983 : 01;
1984 : 01;
1985 : 0b;
1986 : 1c;
1987 : 3f;
1988 : 00;
1989 : 00;
198A : 00;
198B : 00;
198C : 00;
198D : 00;
198E : 00;
198F : 00;
1990 : 00;
1991 : 00;
1992 : 30;
1993 : 78;
1994 : 80;
1995 : f0;
1996 : f8;
1997 : fc;
1998 : 00;
1999 : 00;
199A : 00;
199B : 00;
199C : 00;
199D : 00;
199E : 00;
199F : 00;
19A0 : 3f;
19A1 : 3f;
19A2 : 3f;
19A3 : 1f;
19A4 : 1f;
19A5 : 07;
19A6 : 00;
19A7 : 00;
19A8 : 00;
19A9 : 00;
19AA : 00;
19AB : 00;
19AC : 00;
19AD : 00;
19AE : 00;
19AF : 00;
19B0 : fc;
19B1 : ec;
19B2 : ec;
19B3 : d8;
19B4 : f8;
19B5 : e0;
19B6 : 00;
19B7 : 00;
19B8 : 00;
19B9 : 00;
19BA : 00;
19BB : 00;
19BC : 00;
19BD : 00;
19BE : 00;
19BF : 00;
19C0 : 00;
19C1 : 00;
19C2 : 01;
19C3 : 1d;
19C4 : 3e;
19C5 : 3f;
19C6 : 3f;
19C7 : 3f;
19C8 : 00;
19C9 : 00;
19CA : 00;
19CB : 00;
19CC : 00;
19CD : 00;
19CE : 00;
19CF : 00;
19D0 : 00;
19D1 : 80;
19D2 : 00;
19D3 : 70;
19D4 : f8;
19D5 : fc;
19D6 : fc;
19D7 : fc;
19D8 : 00;
19D9 : 00;
19DA : 00;
19DB : 00;
19DC : 00;
19DD : 00;
19DE : 00;
19DF : 00;
19E0 : 3f;
19E1 : 3f;
19E2 : 1f;
19E3 : 1f;
19E4 : 0f;
19E5 : 06;
19E6 : 00;
19E7 : 00;
19E8 : 00;
19E9 : 00;
19EA : 00;
19EB : 00;
19EC : 00;
19ED : 00;
19EE : 00;
19EF : 00;
19F0 : ec;
19F1 : ec;
19F2 : d8;
19F3 : f8;
19F4 : f0;
19F5 : e0;
19F6 : 00;
19F7 : 00;
19F8 : 00;
19F9 : 00;
19FA : 00;
19FB : 00;
19FC : 00;
19FD : 00;
19FE : 00;
19FF : 00;
1A00 : 00;
1A01 : 04;
1A02 : 03;
1A03 : 00;
1A04 : 01;
1A05 : 07;
1A06 : 0f;
1A07 : 0c;
1A08 : 00;
1A09 : 00;
1A0A : 00;
1A0B : 00;
1A0C : 00;
1A0D : 00;
1A0E : 00;
1A0F : 00;
1A10 : 00;
1A11 : 00;
1A12 : e0;
1A13 : 80;
1A14 : 40;
1A15 : f0;
1A16 : 98;
1A17 : f8;
1A18 : 00;
1A19 : 00;
1A1A : 00;
1A1B : 00;
1A1C : 00;
1A1D : 00;
1A1E : 00;
1A1F : 00;
1A20 : 1f;
1A21 : 13;
1A22 : 1f;
1A23 : 0f;
1A24 : 09;
1A25 : 07;
1A26 : 01;
1A27 : 00;
1A28 : 00;
1A29 : 00;
1A2A : 00;
1A2B : 00;
1A2C : 00;
1A2D : 00;
1A2E : 00;
1A2F : 00;
1A30 : e4;
1A31 : 3c;
1A32 : e4;
1A33 : 38;
1A34 : f8;
1A35 : f0;
1A36 : c0;
1A37 : 00;
1A38 : 00;
1A39 : 00;
1A3A : 00;
1A3B : 00;
1A3C : 00;
1A3D : 00;
1A3E : 00;
1A3F : 00;
1A40 : 00;
1A41 : 00;
1A42 : 00;
1A43 : 00;
1A44 : 11;
1A45 : 13;
1A46 : 1f;
1A47 : 1f;
1A48 : 00;
1A49 : 00;
1A4A : 00;
1A4B : 00;
1A4C : 00;
1A4D : 00;
1A4E : 00;
1A4F : 00;
1A50 : 00;
1A51 : 00;
1A52 : 00;
1A53 : 80;
1A54 : c4;
1A55 : e4;
1A56 : fc;
1A57 : fc;
1A58 : 00;
1A59 : 00;
1A5A : 00;
1A5B : 00;
1A5C : 00;
1A5D : 00;
1A5E : 00;
1A5F : 00;
1A60 : 1f;
1A61 : 0e;
1A62 : 06;
1A63 : 02;
1A64 : 00;
1A65 : 00;
1A66 : 00;
1A67 : 00;
1A68 : 00;
1A69 : 00;
1A6A : 00;
1A6B : 00;
1A6C : 00;
1A6D : 00;
1A6E : 00;
1A6F : 00;
1A70 : fc;
1A71 : b8;
1A72 : b0;
1A73 : a0;
1A74 : 80;
1A75 : 00;
1A76 : 00;
1A77 : 00;
1A78 : 00;
1A79 : 00;
1A7A : 00;
1A7B : 00;
1A7C : 00;
1A7D : 00;
1A7E : 00;
1A7F : 00;
1A80 : 00;
1A81 : 00;
1A82 : 00;
1A83 : 01;
1A84 : 03;
1A85 : 06;
1A86 : 06;
1A87 : 0f;
1A88 : 00;
1A89 : 00;
1A8A : 00;
1A8B : 00;
1A8C : 00;
1A8D : 00;
1A8E : 00;
1A8F : 00;
1A90 : 00;
1A91 : 18;
1A92 : f4;
1A93 : f8;
1A94 : 38;
1A95 : 7c;
1A96 : fc;
1A97 : fc;
1A98 : 00;
1A99 : 00;
1A9A : 00;
1A9B : 00;
1A9C : 00;
1A9D : 00;
1A9E : 00;
1A9F : 00;
1AA0 : 0f;
1AA1 : 1f;
1AA2 : 30;
1AA3 : 38;
1AA4 : 1d;
1AA5 : 03;
1AA6 : 03;
1AA7 : 00;
1AA8 : 00;
1AA9 : 00;
1AAA : 00;
1AAB : 00;
1AAC : 00;
1AAD : 00;
1AAE : 00;
1AAF : 00;
1AB0 : fc;
1AB1 : fc;
1AB2 : 7c;
1AB3 : 8e;
1AB4 : 86;
1AB5 : 9c;
1AB6 : 78;
1AB7 : 00;
1AB8 : 00;
1AB9 : 00;
1ABA : 00;
1ABB : 00;
1ABC : 00;
1ABD : 00;
1ABE : 00;
1ABF : 00;
1AC0 : 00;
1AC1 : 01;
1AC2 : 06;
1AC3 : 07;
1AC4 : 07;
1AC5 : 07;
1AC6 : 01;
1AC7 : 03;
1AC8 : 00;
1AC9 : 00;
1ACA : 00;
1ACB : 00;
1ACC : 00;
1ACD : 00;
1ACE : 00;
1ACF : 00;
1AD0 : 00;
1AD1 : c0;
1AD2 : 30;
1AD3 : f0;
1AD4 : f0;
1AD5 : f0;
1AD6 : 40;
1AD7 : 40;
1AD8 : 00;
1AD9 : 00;
1ADA : 00;
1ADB : 00;
1ADC : 00;
1ADD : 00;
1ADE : 00;
1ADF : 00;
1AE0 : 01;
1AE1 : 00;
1AE2 : 01;
1AE3 : 03;
1AE4 : 01;
1AE5 : 00;
1AE6 : 00;
1AE7 : 00;
1AE8 : 00;
1AE9 : 00;
1AEA : 00;
1AEB : 00;
1AEC : 00;
1AED : 00;
1AEE : 00;
1AEF : 00;
1AF0 : 40;
1AF1 : 40;
1AF2 : 40;
1AF3 : 40;
1AF4 : 40;
1AF5 : 80;
1AF6 : 00;
1AF7 : 00;
1AF8 : 00;
1AF9 : 00;
1AFA : 00;
1AFB : 00;
1AFC : 00;
1AFD : 00;
1AFE : 00;
1AFF : 00;
1B00 : 7e;
1B01 : 63;
1B02 : 63;
1B03 : 63;
1B04 : 7e;
1B05 : 60;
1B06 : 60;
1B07 : 00;
1B08 : 7e;
1B09 : 63;
1B0A : 63;
1B0B : 63;
1B0C : 7e;
1B0D : 60;
1B0E : 60;
1B0F : 00;
1B10 : 60;
1B11 : 60;
1B12 : 60;
1B13 : 60;
1B14 : 60;
1B15 : 60;
1B16 : 7f;
1B17 : 00;
1B18 : 60;
1B19 : 60;
1B1A : 60;
1B1B : 60;
1B1C : 60;
1B1D : 60;
1B1E : 7f;
1B1F : 00;
1B20 : 1c;
1B21 : 36;
1B22 : 63;
1B23 : 63;
1B24 : 7f;
1B25 : 63;
1B26 : 63;
1B27 : 00;
1B28 : 1c;
1B29 : 36;
1B2A : 63;
1B2B : 63;
1B2C : 7f;
1B2D : 63;
1B2E : 63;
1B2F : 00;
1B30 : 33;
1B31 : 33;
1B32 : 33;
1B33 : 1e;
1B34 : 0c;
1B35 : 0c;
1B36 : 0c;
1B37 : 00;
1B38 : 33;
1B39 : 33;
1B3A : 33;
1B3B : 1e;
1B3C : 0c;
1B3D : 0c;
1B3E : 0c;
1B3F : 00;
1B40 : 7f;
1B41 : 60;
1B42 : 60;
1B43 : 7e;
1B44 : 60;
1B45 : 60;
1B46 : 7f;
1B47 : 00;
1B48 : 7f;
1B49 : 60;
1B4A : 60;
1B4B : 7e;
1B4C : 60;
1B4D : 60;
1B4E : 7f;
1B4F : 00;
1B50 : 7e;
1B51 : 63;
1B52 : 63;
1B53 : 67;
1B54 : 7c;
1B55 : 6e;
1B56 : 67;
1B57 : 00;
1B58 : 7e;
1B59 : 63;
1B5A : 63;
1B5B : 67;
1B5C : 7c;
1B5D : 6e;
1B5E : 67;
1B5F : 00;
1B60 : 3e;
1B61 : 63;
1B62 : 63;
1B63 : 63;
1B64 : 63;
1B65 : 63;
1B66 : 3e;
1B67 : 00;
1B68 : 3e;
1B69 : 63;
1B6A : 63;
1B6B : 63;
1B6C : 63;
1B6D : 63;
1B6E : 3e;
1B6F : 00;
1B70 : 63;
1B71 : 73;
1B72 : 7b;
1B73 : 7f;
1B74 : 6f;
1B75 : 67;
1B76 : 63;
1B77 : 00;
1B78 : 63;
1B79 : 73;
1B7A : 7b;
1B7B : 7f;
1B7C : 6f;
1B7D : 67;
1B7E : 63;
1B7F : 00;
1B80 : 3f;
1B81 : 0c;
1B82 : 0c;
1B83 : 0c;
1B84 : 0c;
1B85 : 0c;
1B86 : 0c;
1B87 : 00;
1B88 : 3f;
1B89 : 0c;
1B8A : 0c;
1B8B : 0c;
1B8C : 0c;
1B8D : 0c;
1B8E : 0c;
1B8F : 00;
1B90 : 63;
1B91 : 63;
1B92 : 6b;
1B93 : 7f;
1B94 : 7f;
1B95 : 77;
1B96 : 63;
1B97 : 00;
1B98 : 63;
1B99 : 63;
1B9A : 6b;
1B9B : 7f;
1B9C : 7f;
1B9D : 77;
1B9E : 63;
1B9F : 00;
1BA0 : 7c;
1BA1 : 66;
1BA2 : 63;
1BA3 : 63;
1BA4 : 63;
1BA5 : 66;
1BA6 : 7c;
1BA7 : 00;
1BA8 : 00;
1BA9 : 00;
1BAA : 00;
1BAB : 00;
1BAC : 00;
1BAD : 00;
1BAE : 00;
1BAF : 00;
1BB0 : 1c;
1BB1 : 1c;
1BB2 : 1c;
1BB3 : 18;
1BB4 : 18;
1BB5 : 00;
1BB6 : 18;
1BB7 : 00;
1BB8 : 00;
1BB9 : 00;
1BBA : 00;
1BBB : 00;
1BBC : 00;
1BBD : 00;
1BBE : 00;
1BBF : 00;
1BC0 : 1f;
1BC1 : 30;
1BC2 : 60;
1BC3 : 67;
1BC4 : 63;
1BC5 : 33;
1BC6 : 1f;
1BC7 : 00;
1BC8 : 1f;
1BC9 : 30;
1BCA : 60;
1BCB : 67;
1BCC : 63;
1BCD : 33;
1BCE : 1f;
1BCF : 00;
1BD0 : 63;
1BD1 : 77;
1BD2 : 7f;
1BD3 : 7f;
1BD4 : 6b;
1BD5 : 63;
1BD6 : 63;
1BD7 : 00;
1BD8 : 63;
1BD9 : 77;
1BDA : 7f;
1BDB : 7f;
1BDC : 6b;
1BDD : 63;
1BDE : 63;
1BDF : 00;
1BE0 : 63;
1BE1 : 63;
1BE2 : 63;
1BE3 : 77;
1BE4 : 3e;
1BE5 : 1c;
1BE6 : 08;
1BE7 : 00;
1BE8 : 63;
1BE9 : 63;
1BEA : 63;
1BEB : 77;
1BEC : 3e;
1BED : 1c;
1BEE : 08;
1BEF : 00;
1BF0 : 00;
1BF1 : 00;
1BF2 : 00;
1BF3 : 00;
1BF4 : 00;
1BF5 : 00;
1BF6 : 00;
1BF7 : 00;
1BF8 : 00;
1BF9 : 00;
1BFA : 00;
1BFB : 00;
1BFC : 00;
1BFD : 00;
1BFE : 00;
1BFF : 00;
1C00 : 1f;
1C01 : 30;
1C02 : 60;
1C03 : 67;
1C04 : 63;
1C05 : 33;
1C06 : 1f;
1C07 : 00;
1C08 : 00;
1C09 : 00;
1C0A : 00;
1C0B : 00;
1C0C : 00;
1C0D : 00;
1C0E : 00;
1C0F : 00;
1C10 : 1c;
1C11 : 36;
1C12 : 63;
1C13 : 63;
1C14 : 7f;
1C15 : 63;
1C16 : 63;
1C17 : 00;
1C18 : 00;
1C19 : 00;
1C1A : 00;
1C1B : 00;
1C1C : 00;
1C1D : 00;
1C1E : 00;
1C1F : 00;
1C20 : 63;
1C21 : 77;
1C22 : 7f;
1C23 : 7f;
1C24 : 6b;
1C25 : 63;
1C26 : 63;
1C27 : 00;
1C28 : 00;
1C29 : 00;
1C2A : 00;
1C2B : 00;
1C2C : 00;
1C2D : 00;
1C2E : 00;
1C2F : 00;
1C30 : 7f;
1C31 : 60;
1C32 : 60;
1C33 : 7e;
1C34 : 60;
1C35 : 60;
1C36 : 7f;
1C37 : 00;
1C38 : 00;
1C39 : 00;
1C3A : 00;
1C3B : 00;
1C3C : 00;
1C3D : 00;
1C3E : 00;
1C3F : 00;
1C40 : 3e;
1C41 : 63;
1C42 : 63;
1C43 : 63;
1C44 : 63;
1C45 : 63;
1C46 : 3e;
1C47 : 00;
1C48 : 00;
1C49 : 00;
1C4A : 00;
1C4B : 00;
1C4C : 00;
1C4D : 00;
1C4E : 00;
1C4F : 00;
1C50 : 63;
1C51 : 63;
1C52 : 63;
1C53 : 77;
1C54 : 3e;
1C55 : 1c;
1C56 : 08;
1C57 : 00;
1C58 : 00;
1C59 : 00;
1C5A : 00;
1C5B : 00;
1C5C : 00;
1C5D : 00;
1C5E : 00;
1C5F : 00;
1C60 : 7e;
1C61 : 63;
1C62 : 63;
1C63 : 67;
1C64 : 7c;
1C65 : 6e;
1C66 : 67;
1C67 : 00;
1C68 : 00;
1C69 : 00;
1C6A : 00;
1C6B : 00;
1C6C : 00;
1C6D : 00;
1C6E : 00;
1C6F : 00;
1C70 : 33;
1C71 : 33;
1C72 : 33;
1C73 : 1e;
1C74 : 0c;
1C75 : 0c;
1C76 : 0c;
1C77 : 00;
1C78 : 00;
1C79 : 00;
1C7A : 00;
1C7B : 00;
1C7C : 00;
1C7D : 00;
1C7E : 00;
1C7F : 00;
1C80 : 00;
1C81 : 00;
1C82 : 00;
1C83 : 00;
1C84 : 00;
1C85 : 00;
1C86 : 00;
1C87 : 00;
1C88 : 00;
1C89 : 00;
1C8A : 00;
1C8B : 00;
1C8C : 00;
1C8D : 00;
1C8E : 00;
1C8F : 00;
1C90 : 00;
1C91 : 00;
1C92 : 00;
1C93 : 00;
1C94 : 00;
1C95 : 00;
1C96 : 00;
1C97 : 00;
1C98 : 00;
1C99 : 00;
1C9A : 00;
1C9B : 00;
1C9C : 00;
1C9D : 00;
1C9E : 00;
1C9F : 00;
1CA0 : 00;
1CA1 : 00;
1CA2 : 00;
1CA3 : 00;
1CA4 : 00;
1CA5 : 00;
1CA6 : 00;
1CA7 : 00;
1CA8 : 00;
1CA9 : 00;
1CAA : 00;
1CAB : 00;
1CAC : 00;
1CAD : 00;
1CAE : 00;
1CAF : 00;
1CB0 : 00;
1CB1 : 00;
1CB2 : 00;
1CB3 : 00;
1CB4 : 00;
1CB5 : 00;
1CB6 : 00;
1CB7 : 00;
1CB8 : 00;
1CB9 : 00;
1CBA : 00;
1CBB : 00;
1CBC : 00;
1CBD : 00;
1CBE : 00;
1CBF : 00;
1CC0 : 00;
1CC1 : 00;
1CC2 : 00;
1CC3 : 00;
1CC4 : 00;
1CC5 : 00;
1CC6 : 00;
1CC7 : 00;
1CC8 : 00;
1CC9 : 00;
1CCA : 00;
1CCB : 00;
1CCC : 00;
1CCD : 00;
1CCE : 00;
1CCF : 00;
1CD0 : 00;
1CD1 : 00;
1CD2 : 00;
1CD3 : 00;
1CD4 : 00;
1CD5 : 00;
1CD6 : 00;
1CD7 : 00;
1CD8 : 00;
1CD9 : 00;
1CDA : 00;
1CDB : 00;
1CDC : 00;
1CDD : 00;
1CDE : 00;
1CDF : 00;
1CE0 : 00;
1CE1 : 00;
1CE2 : 00;
1CE3 : 00;
1CE4 : 00;
1CE5 : 00;
1CE6 : 00;
1CE7 : 00;
1CE8 : 00;
1CE9 : 00;
1CEA : 00;
1CEB : 00;
1CEC : 00;
1CED : 00;
1CEE : 00;
1CEF : 00;
1CF0 : 00;
1CF1 : 00;
1CF2 : 00;
1CF3 : 00;
1CF4 : 00;
1CF5 : 00;
1CF6 : 00;
1CF7 : 00;
1CF8 : 00;
1CF9 : 00;
1CFA : 00;
1CFB : 00;
1CFC : 00;
1CFD : 00;
1CFE : 00;
1CFF : 00;
1D00 : ff;
1D01 : ff;
1D02 : ff;
1D03 : ff;
1D04 : ff;
1D05 : ff;
1D06 : ff;
1D07 : ff;
1D08 : ff;
1D09 : ff;
1D0A : ff;
1D0B : ff;
1D0C : ff;
1D0D : ff;
1D0E : ff;
1D0F : ff;
1D10 : ff;
1D11 : ff;
1D12 : ff;
1D13 : ff;
1D14 : ff;
1D15 : ff;
1D16 : ff;
1D17 : ff;
1D18 : ff;
1D19 : ff;
1D1A : ff;
1D1B : ff;
1D1C : ff;
1D1D : ff;
1D1E : ff;
1D1F : ff;
1D20 : ff;
1D21 : ff;
1D22 : ff;
1D23 : ff;
1D24 : ff;
1D25 : ff;
1D26 : ff;
1D27 : ff;
1D28 : ff;
1D29 : ff;
1D2A : ff;
1D2B : ff;
1D2C : ff;
1D2D : ff;
1D2E : ff;
1D2F : ff;
1D30 : ff;
1D31 : ff;
1D32 : ff;
1D33 : ff;
1D34 : ff;
1D35 : ff;
1D36 : ff;
1D37 : ff;
1D38 : ff;
1D39 : ff;
1D3A : ff;
1D3B : ff;
1D3C : ff;
1D3D : ff;
1D3E : ff;
1D3F : ff;
1D40 : ff;
1D41 : ff;
1D42 : ff;
1D43 : ff;
1D44 : ff;
1D45 : ff;
1D46 : ff;
1D47 : ff;
1D48 : ff;
1D49 : ff;
1D4A : ff;
1D4B : ff;
1D4C : ff;
1D4D : ff;
1D4E : ff;
1D4F : ff;
1D50 : ff;
1D51 : ff;
1D52 : ff;
1D53 : ff;
1D54 : ff;
1D55 : ff;
1D56 : ff;
1D57 : ff;
1D58 : ff;
1D59 : ff;
1D5A : ff;
1D5B : ff;
1D5C : ff;
1D5D : ff;
1D5E : ff;
1D5F : ff;
1D60 : ff;
1D61 : ff;
1D62 : ff;
1D63 : ff;
1D64 : ff;
1D65 : ff;
1D66 : ff;
1D67 : ff;
1D68 : ff;
1D69 : ff;
1D6A : ff;
1D6B : ff;
1D6C : ff;
1D6D : ff;
1D6E : ff;
1D6F : ff;
1D70 : ff;
1D71 : ff;
1D72 : ff;
1D73 : ff;
1D74 : ff;
1D75 : ff;
1D76 : ff;
1D77 : ff;
1D78 : ff;
1D79 : ff;
1D7A : ff;
1D7B : ff;
1D7C : ff;
1D7D : ff;
1D7E : ff;
1D7F : ff;
1D80 : ff;
1D81 : ff;
1D82 : ff;
1D83 : ff;
1D84 : ff;
1D85 : ff;
1D86 : ff;
1D87 : ff;
1D88 : ff;
1D89 : ff;
1D8A : ff;
1D8B : ff;
1D8C : ff;
1D8D : ff;
1D8E : ff;
1D8F : ff;
1D90 : ff;
1D91 : ff;
1D92 : ff;
1D93 : ff;
1D94 : ff;
1D95 : ff;
1D96 : ff;
1D97 : ff;
1D98 : ff;
1D99 : ff;
1D9A : ff;
1D9B : ff;
1D9C : ff;
1D9D : ff;
1D9E : ff;
1D9F : ff;
1DA0 : ff;
1DA1 : ff;
1DA2 : ff;
1DA3 : ff;
1DA4 : ff;
1DA5 : ff;
1DA6 : ff;
1DA7 : ff;
1DA8 : ff;
1DA9 : ff;
1DAA : ff;
1DAB : ff;
1DAC : ff;
1DAD : ff;
1DAE : ff;
1DAF : ff;
1DB0 : ff;
1DB1 : ff;
1DB2 : ff;
1DB3 : ff;
1DB4 : ff;
1DB5 : ff;
1DB6 : ff;
1DB7 : ff;
1DB8 : ff;
1DB9 : ff;
1DBA : ff;
1DBB : ff;
1DBC : ff;
1DBD : ff;
1DBE : ff;
1DBF : ff;
1DC0 : ff;
1DC1 : ff;
1DC2 : ff;
1DC3 : ff;
1DC4 : ff;
1DC5 : ff;
1DC6 : ff;
1DC7 : ff;
1DC8 : ff;
1DC9 : ff;
1DCA : ff;
1DCB : ff;
1DCC : ff;
1DCD : ff;
1DCE : ff;
1DCF : ff;
1DD0 : ff;
1DD1 : ff;
1DD2 : ff;
1DD3 : ff;
1DD4 : ff;
1DD5 : ff;
1DD6 : ff;
1DD7 : ff;
1DD8 : ff;
1DD9 : ff;
1DDA : ff;
1DDB : ff;
1DDC : ff;
1DDD : ff;
1DDE : ff;
1DDF : ff;
1DE0 : ff;
1DE1 : ff;
1DE2 : ff;
1DE3 : ff;
1DE4 : ff;
1DE5 : ff;
1DE6 : ff;
1DE7 : ff;
1DE8 : ff;
1DE9 : ff;
1DEA : ff;
1DEB : ff;
1DEC : ff;
1DED : ff;
1DEE : ff;
1DEF : ff;
1DF0 : ff;
1DF1 : ff;
1DF2 : ff;
1DF3 : ff;
1DF4 : ff;
1DF5 : ff;
1DF6 : ff;
1DF7 : ff;
1DF8 : ff;
1DF9 : ff;
1DFA : ff;
1DFB : ff;
1DFC : ff;
1DFD : ff;
1DFE : ff;
1DFF : ff;
1E00 : ff;
1E01 : ff;
1E02 : ff;
1E03 : ff;
1E04 : ff;
1E05 : ff;
1E06 : ff;
1E07 : ff;
1E08 : ff;
1E09 : ff;
1E0A : ff;
1E0B : ff;
1E0C : ff;
1E0D : ff;
1E0E : ff;
1E0F : ff;
1E10 : ff;
1E11 : ff;
1E12 : ff;
1E13 : ff;
1E14 : ff;
1E15 : ff;
1E16 : ff;
1E17 : ff;
1E18 : ff;
1E19 : ff;
1E1A : ff;
1E1B : ff;
1E1C : ff;
1E1D : ff;
1E1E : ff;
1E1F : ff;
1E20 : ff;
1E21 : ff;
1E22 : ff;
1E23 : ff;
1E24 : ff;
1E25 : ff;
1E26 : ff;
1E27 : ff;
1E28 : ff;
1E29 : ff;
1E2A : ff;
1E2B : ff;
1E2C : ff;
1E2D : ff;
1E2E : ff;
1E2F : ff;
1E30 : ff;
1E31 : ff;
1E32 : ff;
1E33 : ff;
1E34 : ff;
1E35 : ff;
1E36 : ff;
1E37 : ff;
1E38 : ff;
1E39 : ff;
1E3A : ff;
1E3B : ff;
1E3C : ff;
1E3D : ff;
1E3E : ff;
1E3F : ff;
1E40 : ff;
1E41 : ff;
1E42 : ff;
1E43 : ff;
1E44 : ff;
1E45 : ff;
1E46 : ff;
1E47 : ff;
1E48 : ff;
1E49 : ff;
1E4A : ff;
1E4B : ff;
1E4C : ff;
1E4D : ff;
1E4E : ff;
1E4F : ff;
1E50 : ff;
1E51 : ff;
1E52 : ff;
1E53 : ff;
1E54 : ff;
1E55 : ff;
1E56 : ff;
1E57 : ff;
1E58 : ff;
1E59 : ff;
1E5A : ff;
1E5B : ff;
1E5C : ff;
1E5D : ff;
1E5E : ff;
1E5F : ff;
1E60 : ff;
1E61 : ff;
1E62 : ff;
1E63 : ff;
1E64 : ff;
1E65 : ff;
1E66 : ff;
1E67 : ff;
1E68 : ff;
1E69 : ff;
1E6A : ff;
1E6B : ff;
1E6C : ff;
1E6D : ff;
1E6E : ff;
1E6F : ff;
1E70 : ff;
1E71 : ff;
1E72 : ff;
1E73 : ff;
1E74 : ff;
1E75 : ff;
1E76 : ff;
1E77 : ff;
1E78 : ff;
1E79 : ff;
1E7A : ff;
1E7B : ff;
1E7C : ff;
1E7D : ff;
1E7E : ff;
1E7F : ff;
1E80 : ff;
1E81 : ff;
1E82 : ff;
1E83 : ff;
1E84 : ff;
1E85 : ff;
1E86 : ff;
1E87 : ff;
1E88 : ff;
1E89 : ff;
1E8A : ff;
1E8B : ff;
1E8C : ff;
1E8D : ff;
1E8E : ff;
1E8F : ff;
1E90 : ff;
1E91 : ff;
1E92 : ff;
1E93 : ff;
1E94 : ff;
1E95 : ff;
1E96 : ff;
1E97 : ff;
1E98 : ff;
1E99 : ff;
1E9A : ff;
1E9B : ff;
1E9C : ff;
1E9D : ff;
1E9E : ff;
1E9F : ff;
1EA0 : ff;
1EA1 : ff;
1EA2 : ff;
1EA3 : ff;
1EA4 : ff;
1EA5 : ff;
1EA6 : ff;
1EA7 : ff;
1EA8 : ff;
1EA9 : ff;
1EAA : ff;
1EAB : ff;
1EAC : ff;
1EAD : ff;
1EAE : ff;
1EAF : ff;
1EB0 : ff;
1EB1 : ff;
1EB2 : ff;
1EB3 : ff;
1EB4 : ff;
1EB5 : ff;
1EB6 : ff;
1EB7 : ff;
1EB8 : ff;
1EB9 : ff;
1EBA : ff;
1EBB : ff;
1EBC : ff;
1EBD : ff;
1EBE : ff;
1EBF : ff;
1EC0 : ff;
1EC1 : ff;
1EC2 : ff;
1EC3 : ff;
1EC4 : ff;
1EC5 : ff;
1EC6 : ff;
1EC7 : ff;
1EC8 : ff;
1EC9 : ff;
1ECA : ff;
1ECB : ff;
1ECC : ff;
1ECD : ff;
1ECE : ff;
1ECF : ff;
1ED0 : ff;
1ED1 : ff;
1ED2 : ff;
1ED3 : ff;
1ED4 : ff;
1ED5 : ff;
1ED6 : ff;
1ED7 : ff;
1ED8 : ff;
1ED9 : ff;
1EDA : ff;
1EDB : ff;
1EDC : ff;
1EDD : ff;
1EDE : ff;
1EDF : ff;
1EE0 : ff;
1EE1 : ff;
1EE2 : ff;
1EE3 : ff;
1EE4 : ff;
1EE5 : ff;
1EE6 : ff;
1EE7 : ff;
1EE8 : ff;
1EE9 : ff;
1EEA : ff;
1EEB : ff;
1EEC : ff;
1EED : ff;
1EEE : ff;
1EEF : ff;
1EF0 : ff;
1EF1 : ff;
1EF2 : ff;
1EF3 : ff;
1EF4 : ff;
1EF5 : ff;
1EF6 : ff;
1EF7 : ff;
1EF8 : ff;
1EF9 : ff;
1EFA : ff;
1EFB : ff;
1EFC : ff;
1EFD : ff;
1EFE : ff;
1EFF : ff;
1F00 : ff;
1F01 : ff;
1F02 : ff;
1F03 : ff;
1F04 : ff;
1F05 : ff;
1F06 : ff;
1F07 : ff;
1F08 : ff;
1F09 : ff;
1F0A : ff;
1F0B : ff;
1F0C : ff;
1F0D : ff;
1F0E : ff;
1F0F : ff;
1F10 : ff;
1F11 : ff;
1F12 : ff;
1F13 : ff;
1F14 : ff;
1F15 : ff;
1F16 : ff;
1F17 : ff;
1F18 : ff;
1F19 : ff;
1F1A : ff;
1F1B : ff;
1F1C : ff;
1F1D : ff;
1F1E : ff;
1F1F : ff;
1F20 : ff;
1F21 : ff;
1F22 : ff;
1F23 : ff;
1F24 : ff;
1F25 : ff;
1F26 : ff;
1F27 : ff;
1F28 : ff;
1F29 : ff;
1F2A : ff;
1F2B : ff;
1F2C : ff;
1F2D : ff;
1F2E : ff;
1F2F : ff;
1F30 : ff;
1F31 : ff;
1F32 : ff;
1F33 : ff;
1F34 : ff;
1F35 : ff;
1F36 : ff;
1F37 : ff;
1F38 : ff;
1F39 : ff;
1F3A : ff;
1F3B : ff;
1F3C : ff;
1F3D : ff;
1F3E : ff;
1F3F : ff;
1F40 : ff;
1F41 : ff;
1F42 : ff;
1F43 : ff;
1F44 : ff;
1F45 : ff;
1F46 : ff;
1F47 : ff;
1F48 : ff;
1F49 : ff;
1F4A : ff;
1F4B : ff;
1F4C : ff;
1F4D : ff;
1F4E : ff;
1F4F : ff;
1F50 : ff;
1F51 : ff;
1F52 : ff;
1F53 : ff;
1F54 : ff;
1F55 : ff;
1F56 : ff;
1F57 : ff;
1F58 : ff;
1F59 : ff;
1F5A : ff;
1F5B : ff;
1F5C : ff;
1F5D : ff;
1F5E : ff;
1F5F : ff;
1F60 : ff;
1F61 : ff;
1F62 : ff;
1F63 : ff;
1F64 : ff;
1F65 : ff;
1F66 : ff;
1F67 : ff;
1F68 : ff;
1F69 : ff;
1F6A : ff;
1F6B : ff;
1F6C : ff;
1F6D : ff;
1F6E : ff;
1F6F : ff;
1F70 : ff;
1F71 : ff;
1F72 : ff;
1F73 : ff;
1F74 : ff;
1F75 : ff;
1F76 : ff;
1F77 : ff;
1F78 : ff;
1F79 : ff;
1F7A : ff;
1F7B : ff;
1F7C : ff;
1F7D : ff;
1F7E : ff;
1F7F : ff;
1F80 : ff;
1F81 : ff;
1F82 : ff;
1F83 : ff;
1F84 : ff;
1F85 : ff;
1F86 : ff;
1F87 : ff;
1F88 : ff;
1F89 : ff;
1F8A : ff;
1F8B : ff;
1F8C : ff;
1F8D : ff;
1F8E : ff;
1F8F : ff;
1F90 : ff;
1F91 : ff;
1F92 : ff;
1F93 : ff;
1F94 : ff;
1F95 : ff;
1F96 : ff;
1F97 : ff;
1F98 : ff;
1F99 : ff;
1F9A : ff;
1F9B : ff;
1F9C : ff;
1F9D : ff;
1F9E : ff;
1F9F : ff;
1FA0 : ff;
1FA1 : ff;
1FA2 : ff;
1FA3 : ff;
1FA4 : ff;
1FA5 : ff;
1FA6 : ff;
1FA7 : ff;
1FA8 : ff;
1FA9 : ff;
1FAA : ff;
1FAB : ff;
1FAC : ff;
1FAD : ff;
1FAE : ff;
1FAF : ff;
1FB0 : ff;
1FB1 : ff;
1FB2 : ff;
1FB3 : ff;
1FB4 : ff;
1FB5 : ff;
1FB6 : ff;
1FB7 : ff;
1FB8 : ff;
1FB9 : ff;
1FBA : ff;
1FBB : ff;
1FBC : ff;
1FBD : ff;
1FBE : ff;
1FBF : ff;
1FC0 : ff;
1FC1 : ff;
1FC2 : ff;
1FC3 : ff;
1FC4 : ff;
1FC5 : ff;
1FC6 : ff;
1FC7 : ff;
1FC8 : ff;
1FC9 : ff;
1FCA : ff;
1FCB : ff;
1FCC : ff;
1FCD : ff;
1FCE : ff;
1FCF : ff;
1FD0 : ff;
1FD1 : ff;
1FD2 : ff;
1FD3 : ff;
1FD4 : ff;
1FD5 : ff;
1FD6 : ff;
1FD7 : ff;
1FD8 : ff;
1FD9 : ff;
1FDA : ff;
1FDB : ff;
1FDC : ff;
1FDD : ff;
1FDE : ff;
1FDF : ff;
1FE0 : ff;
1FE1 : ff;
1FE2 : ff;
1FE3 : ff;
1FE4 : ff;
1FE5 : ff;
1FE6 : ff;
1FE7 : ff;
1FE8 : ff;
1FE9 : ff;
1FEA : ff;
1FEB : ff;
1FEC : ff;
1FED : ff;
1FEE : ff;
1FEF : ff;
1FF0 : ff;
1FF1 : ff;
1FF2 : ff;
1FF3 : ff;
1FF4 : ff;
1FF5 : ff;
1FF6 : ff;
1FF7 : ff;
1FF8 : ff;
1FF9 : ff;
1FFA : ff;
1FFB : ff;
1FFC : ff;
1FFD : ff;
1FFE : ff;
1FFF : ff;
END;