DEPTH=32768;
WIDTH=8;
ADDRESS_RADIX=HEX;
DATA_RADIX=HEX;
CONTENT
BEGIN
   0 : 43;
   1 : 4f;
   2 : 50;
   3 : 59;
   4 : 20;
   5 : 52;
   6 : 49;
   7 : 47;
   8 : 48;
   9 : 54;
   A : 20;
   B : 31;
   C : 39;
   D : 38;
   E : 34;
   F : 20;
  10 : 31;
  11 : 39;
  12 : 39;
  13 : 33;
  14 : 20;
  15 : 4e;
  16 : 41;
  17 : 4d;
  18 : 43;
  19 : 4f;
  1A : 20;
  1B : 4c;
  1C : 54;
  1D : 44;
  1E : 2e;
  1F : 20;
  20 : 41;
  21 : 4c;
  22 : 4c;
  23 : 20;
  24 : 52;
  25 : 49;
  26 : 47;
  27 : 48;
  28 : 54;
  29 : 53;
  2A : 20;
  2B : 52;
  2C : 45;
  2D : 53;
  2E : 45;
  2F : 52;
  30 : 56;
  31 : 45;
  32 : 44;
  33 : a2;
  34 : 00;
  35 : 8e;
  36 : 00;
  37 : 20;
  38 : 78;
  39 : d8;
  3A : ca;
  3B : 9a;
  3C : ea;
  3D : ea;
  3E : ea;
  3F : a2;
  40 : 02;
  41 : a9;
  42 : 06;
  43 : 8d;
  44 : 01;
  45 : 20;
  46 : ad;
  47 : 02;
  48 : 20;
  49 : ad;
  4A : 02;
  4B : 20;
  4C : 10;
  4D : fb;
  4E : a9;
  4F : 00;
  50 : 8d;
  51 : 05;
  52 : 20;
  53 : 8d;
  54 : 05;
  55 : 20;
  56 : ca;
  57 : d0;
  58 : e8;
  59 : a9;
  5A : 00;
  5B : a8;
  5C : 99;
  5D : 00;
  5E : 00;
  5F : c8;
  60 : c0;
  61 : 3e;
  62 : d0;
  63 : f8;
  64 : a2;
  65 : 08;
  66 : a0;
  67 : 87;
  68 : 91;
  69 : 00;
  6A : c8;
  6B : d0;
  6C : fb;
  6D : e6;
  6E : 01;
  6F : e4;
  70 : 01;
  71 : d0;
  72 : f5;
  73 : a9;
  74 : 06;
  75 : 8d;
  76 : 01;
  77 : 20;
  78 : a9;
  79 : 00;
  7A : 8d;
  7B : 05;
  7C : 20;
  7D : 8d;
  7E : 05;
  7F : 20;
  80 : 85;
  81 : 41;
  82 : 85;
  83 : 42;
  84 : 8d;
  85 : 00;
  86 : 20;
  87 : 8d;
  88 : 01;
  89 : 20;
  8A : a8;
  8B : b9;
  8C : ff;
  8D : c0;
  8E : d9;
  8F : 52;
  90 : 00;
  91 : d0;
  92 : 07;
  93 : c8;
  94 : c0;
  95 : 0f;
  96 : d0;
  97 : f3;
  98 : f0;
  99 : 1a;
  9A : a9;
  9B : 00;
  9C : a8;
  9D : 99;
  9E : 00;
  9F : 00;
  A0 : c8;
  A1 : d0;
  A2 : fa;
  A3 : a0;
  A4 : 00;
  A5 : b9;
  A6 : ff;
  A7 : c0;
  A8 : 99;
  A9 : 52;
  AA : 00;
  AB : c8;
  AC : c0;
  AD : 0f;
  AE : d0;
  AF : f5;
  B0 : a9;
  B1 : 01;
  B2 : 85;
  B3 : 64;
  B4 : a0;
  B5 : 00;
  B6 : 84;
  B7 : 3f;
  B8 : a9;
  B9 : 07;
  BA : 85;
  BB : 45;
  BC : a9;
  BD : 01;
  BE : c5;
  BF : 47;
  C0 : d0;
  C1 : 19;
  C2 : c5;
  C3 : 46;
  C4 : d0;
  C5 : 15;
  C6 : b9;
  C7 : 77;
  C8 : 00;
  C9 : 85;
  CA : 00;
  CB : b9;
  CC : 67;
  CD : 00;
  CE : 99;
  CF : 77;
  D0 : 00;
  D1 : a5;
  D2 : 00;
  D3 : 99;
  D4 : 67;
  D5 : 00;
  D6 : c8;
  D7 : c0;
  D8 : 10;
  D9 : d0;
  DA : eb;
  DB : a9;
  DC : 1f;
  DD : 8d;
  DE : 15;
  DF : 40;
  E0 : a9;
  E1 : c0;
  E2 : 8d;
  E3 : 17;
  E4 : 40;
  E5 : 20;
  E6 : 8c;
  E7 : ee;
  E8 : 20;
  E9 : b4;
  EA : ee;
  EB : a9;
  EC : 88;
  ED : 85;
  EE : 43;
  EF : 8d;
  F0 : 00;
  F1 : 20;
  F2 : a9;
  F3 : ff;
  F4 : 85;
  F5 : 48;
  F6 : 8d;
  F7 : 3f;
  F8 : 02;
  F9 : 8d;
  FA : 4b;
  FB : 02;
  FC : 4c;
  FD : e7;
  FE : c1;
  FF : 48;
 100 : 49;
 101 : 52;
 102 : 4f;
 103 : 4b;
 104 : 49;
 105 : 20;
 106 : 41;
 107 : 4f;
 108 : 59;
 109 : 41;
 10A : 47;
 10B : 49;
 10C : aa;
 10D : 55;
 10E : 48;
 10F : 8a;
 110 : 48;
 111 : 98;
 112 : 48;
 113 : a9;
 114 : 1e;
 115 : 8d;
 116 : 01;
 117 : 20;
 118 : a9;
 119 : 00;
 11A : 8d;
 11B : 03;
 11C : 20;
 11D : 85;
 11E : 40;
 11F : a5;
 120 : 45;
 121 : 8d;
 122 : 14;
 123 : 40;
 124 : 20;
 125 : 7e;
 126 : de;
 127 : 20;
 128 : a2;
 129 : e2;
 12A : 20;
 12B : 7f;
 12C : c1;
 12D : a5;
 12E : 41;
 12F : 8d;
 130 : 05;
 131 : 20;
 132 : a5;
 133 : 42;
 134 : 8d;
 135 : 05;
 136 : 20;
 137 : a5;
 138 : 47;
 139 : 25;
 13A : 46;
 13B : 29;
 13C : 01;
 13D : 0a;
 13E : 05;
 13F : 43;
 140 : 8d;
 141 : 00;
 142 : 20;
 143 : a9;
 144 : 01;
 145 : 8d;
 146 : 16;
 147 : 40;
 148 : a9;
 149 : 00;
 14A : 8d;
 14B : 16;
 14C : 40;
 14D : a2;
 14E : 08;
 14F : ad;
 150 : 16;
 151 : 40;
 152 : 29;
 153 : 03;
 154 : c9;
 155 : 01;
 156 : 66;
 157 : 4d;
 158 : ad;
 159 : 17;
 15A : 40;
 15B : 29;
 15C : 03;
 15D : c9;
 15E : 01;
 15F : 66;
 160 : 4e;
 161 : ca;
 162 : d0;
 163 : eb;
 164 : a6;
 165 : 4d;
 166 : a5;
 167 : 46;
 168 : 25;
 169 : 47;
 16A : f0;
 16B : 02;
 16C : a6;
 16D : 4e;
 16E : 86;
 16F : 4f;
 170 : e6;
 171 : 4b;
 172 : a5;
 173 : 48;
 174 : d0;
 175 : 03;
 176 : 20;
 177 : d0;
 178 : ee;
 179 : 68;
 17A : a8;
 17B : 68;
 17C : aa;
 17D : 68;
 17E : 40;
 17F : ad;
 180 : 99;
 181 : 02;
 182 : c9;
 183 : 0f;
 184 : d0;
 185 : 1a;
 186 : ad;
 187 : 02;
 188 : 20;
 189 : a9;
 18A : 3f;
 18B : 8d;
 18C : 06;
 18D : 20;
 18E : a9;
 18F : 00;
 190 : 8d;
 191 : 06;
 192 : 20;
 193 : a0;
 194 : 00;
 195 : b9;
 196 : 99;
 197 : 02;
 198 : 8d;
 199 : 07;
 19A : 20;
 19B : c8;
 19C : c0;
 19D : 10;
 19E : d0;
 19F : f5;
 1A0 : ad;
 1A1 : a9;
 1A2 : 02;
 1A3 : c9;
 1A4 : 0f;
 1A5 : d0;
 1A6 : 1a;
 1A7 : ad;
 1A8 : 02;
 1A9 : 20;
 1AA : a9;
 1AB : 3f;
 1AC : 8d;
 1AD : 06;
 1AE : 20;
 1AF : a9;
 1B0 : 10;
 1B1 : 8d;
 1B2 : 06;
 1B3 : 20;
 1B4 : a0;
 1B5 : 00;
 1B6 : b9;
 1B7 : a9;
 1B8 : 02;
 1B9 : 8d;
 1BA : 07;
 1BB : 20;
 1BC : c8;
 1BD : c0;
 1BE : 10;
 1BF : d0;
 1C0 : f5;
 1C1 : ad;
 1C2 : 99;
 1C3 : 02;
 1C4 : c9;
 1C5 : 0f;
 1C6 : f0;
 1C7 : 08;
 1C8 : ad;
 1C9 : a9;
 1CA : 02;
 1CB : c9;
 1CC : 0f;
 1CD : f0;
 1CE : 01;
 1CF : 60;
 1D0 : a9;
 1D1 : 30;
 1D2 : 8d;
 1D3 : 06;
 1D4 : 20;
 1D5 : a9;
 1D6 : 00;
 1D7 : 8d;
 1D8 : 06;
 1D9 : 20;
 1DA : 8d;
 1DB : 06;
 1DC : 20;
 1DD : 8d;
 1DE : 06;
 1DF : 20;
 1E0 : 8d;
 1E1 : 99;
 1E2 : 02;
 1E3 : 8d;
 1E4 : a9;
 1E5 : 02;
 1E6 : 60;
 1E7 : a9;
 1E8 : 01;
 1E9 : 85;
 1EA : 40;
 1EB : a5;
 1EC : 40;
 1ED : d0;
 1EE : fc;
 1EF : a9;
 1F0 : 08;
 1F1 : 8d;
 1F2 : 00;
 1F3 : 20;
 1F4 : 85;
 1F5 : 43;
 1F6 : ad;
 1F7 : 02;
 1F8 : 20;
 1F9 : a9;
 1FA : 00;
 1FB : 8d;
 1FC : 01;
 1FD : 20;
 1FE : aa;
 1FF : 9d;
 200 : 00;
 201 : 07;
 202 : e8;
 203 : d0;
 204 : fa;
 205 : 85;
 206 : 46;
 207 : 20;
 208 : 85;
 209 : e3;
 20A : 20;
 20B : 0b;
 20C : c3;
 20D : 20;
 20E : a6;
 20F : c2;
 210 : 20;
 211 : 19;
 212 : e4;
 213 : a0;
 214 : 00;
 215 : b9;
 216 : 3f;
 217 : c4;
 218 : 99;
 219 : 99;
 21A : 02;
 21B : c8;
 21C : c0;
 21D : 20;
 21E : d0;
 21F : f5;
 220 : a9;
 221 : 2d;
 222 : 85;
 223 : 6c;
 224 : 85;
 225 : 6d;
 226 : 85;
 227 : 6e;
 228 : 85;
 229 : 6f;
 22A : a9;
 22B : ff;
 22C : 8d;
 22D : 3f;
 22E : 02;
 22F : 85;
 230 : 48;
 231 : a9;
 232 : 00;
 233 : 85;
 234 : 47;
 235 : 85;
 236 : 46;
 237 : 85;
 238 : 42;
 239 : 85;
 23A : 41;
 23B : 85;
 23C : 4c;
 23D : 85;
 23E : 87;
 23F : 85;
 240 : 88;
 241 : a5;
 242 : 3f;
 243 : d0;
 244 : 04;
 245 : a9;
 246 : 8a;
 247 : d0;
 248 : 02;
 249 : a9;
 24A : 88;
 24B : 8d;
 24C : 00;
 24D : 20;
 24E : 85;
 24F : 43;
 250 : a9;
 251 : 01;
 252 : 85;
 253 : 40;
 254 : a5;
 255 : 40;
 256 : d0;
 257 : fc;
 258 : a4;
 259 : 3f;
 25A : b9;
 25B : 67;
 25C : c2;
 25D : 85;
 25E : 10;
 25F : b9;
 260 : 68;
 261 : c2;
 262 : 85;
 263 : 11;
 264 : 6c;
 265 : 10;
 266 : 00;
 267 : 7a;
 268 : c2;
 269 : 77;
 26A : c4;
 26B : 12;
 26C : c5;
 26D : 6f;
 26E : c2;
 26F : c6;
 270 : 0f;
 271 : d0;
 272 : dd;
 273 : a9;
 274 : 02;
 275 : 85;
 276 : 3f;
 277 : 4c;
 278 : 50;
 279 : c2;
 27A : a5;
 27B : 4d;
 27C : 29;
 27D : 0c;
 27E : f0;
 27F : 0b;
 280 : a9;
 281 : 06;
 282 : 85;
 283 : 3f;
 284 : a9;
 285 : 5a;
 286 : 85;
 287 : 0f;
 288 : 4c;
 289 : e7;
 28A : c1;
 28B : e6;
 28C : 42;
 28D : a9;
 28E : f0;
 28F : c5;
 290 : 42;
 291 : d0;
 292 : 10;
 293 : a9;
 294 : 00;
 295 : 85;
 296 : 42;
 297 : a9;
 298 : 88;
 299 : 85;
 29A : 43;
 29B : a9;
 29C : 06;
 29D : 85;
 29E : 3f;
 29F : a9;
 2A0 : 5a;
 2A1 : 85;
 2A2 : 0f;
 2A3 : 4c;
 2A4 : 50;
 2A5 : c2;
 2A6 : a9;
 2A7 : 20;
 2A8 : 85;
 2A9 : 00;
 2AA : a9;
 2AB : e5;
 2AC : 85;
 2AD : 01;
 2AE : a9;
 2AF : 06;
 2B0 : 85;
 2B1 : 02;
 2B2 : a0;
 2B3 : 00;
 2B4 : ad;
 2B5 : 02;
 2B6 : 20;
 2B7 : a5;
 2B8 : 00;
 2B9 : 8d;
 2BA : 06;
 2BB : 20;
 2BC : a5;
 2BD : 01;
 2BE : 8d;
 2BF : 06;
 2C0 : 20;
 2C1 : a9;
 2C2 : 17;
 2C3 : 85;
 2C4 : 03;
 2C5 : b9;
 2C6 : 26;
 2C7 : c3;
 2C8 : 8d;
 2C9 : 07;
 2CA : 20;
 2CB : c8;
 2CC : c6;
 2CD : 03;
 2CE : d0;
 2CF : f5;
 2D0 : a5;
 2D1 : 01;
 2D2 : 18;
 2D3 : 69;
 2D4 : 20;
 2D5 : 85;
 2D6 : 01;
 2D7 : a9;
 2D8 : 00;
 2D9 : 65;
 2DA : 00;
 2DB : 85;
 2DC : 00;
 2DD : c6;
 2DE : 02;
 2DF : d0;
 2E0 : d3;
 2E1 : a9;
 2E2 : 09;
 2E3 : 85;
 2E4 : 00;
 2E5 : a0;
 2E6 : 00;
 2E7 : ad;
 2E8 : 02;
 2E9 : 20;
 2EA : b9;
 2EB : b0;
 2EC : c3;
 2ED : 8d;
 2EE : 06;
 2EF : 20;
 2F0 : c8;
 2F1 : b9;
 2F2 : b0;
 2F3 : c3;
 2F4 : 8d;
 2F5 : 06;
 2F6 : 20;
 2F7 : c8;
 2F8 : b9;
 2F9 : b0;
 2FA : c3;
 2FB : c9;
 2FC : ff;
 2FD : f0;
 2FE : 06;
 2FF : 8d;
 300 : 07;
 301 : 20;
 302 : c8;
 303 : d0;
 304 : f3;
 305 : c8;
 306 : c6;
 307 : 00;
 308 : d0;
 309 : dd;
 30A : 60;
 30B : ad;
 30C : 02;
 30D : 20;
 30E : a9;
 30F : 23;
 310 : 8d;
 311 : 06;
 312 : 20;
 313 : a9;
 314 : c8;
 315 : 8d;
 316 : 06;
 317 : 20;
 318 : a0;
 319 : 00;
 31A : b9;
 31B : 5f;
 31C : c4;
 31D : 8d;
 31E : 07;
 31F : 20;
 320 : c8;
 321 : c0;
 322 : 18;
 323 : d0;
 324 : f5;
 325 : 60;
 326 : e4;
 327 : e8;
 328 : e8;
 329 : e8;
 32A : e8;
 32B : e8;
 32C : e8;
 32D : e8;
 32E : e8;
 32F : e8;
 330 : e8;
 331 : e8;
 332 : e8;
 333 : e8;
 334 : e8;
 335 : e8;
 336 : e8;
 337 : e8;
 338 : e8;
 339 : e8;
 33A : e8;
 33B : e8;
 33C : e5;
 33D : eb;
 33E : 88;
 33F : 80;
 340 : 81;
 341 : 82;
 342 : 83;
 343 : 84;
 344 : 85;
 345 : 86;
 346 : 87;
 347 : 88;
 348 : 88;
 349 : 89;
 34A : 8a;
 34B : 8b;
 34C : 8c;
 34D : 8d;
 34E : 8e;
 34F : 8f;
 350 : 90;
 351 : 91;
 352 : a3;
 353 : e9;
 354 : eb;
 355 : 88;
 356 : 92;
 357 : 93;
 358 : 94;
 359 : 95;
 35A : 96;
 35B : 97;
 35C : 98;
 35D : 99;
 35E : 9a;
 35F : 9b;
 360 : 9c;
 361 : 9d;
 362 : 9e;
 363 : 9f;
 364 : a0;
 365 : a1;
 366 : a2;
 367 : a3;
 368 : a4;
 369 : a3;
 36A : e9;
 36B : eb;
 36C : 88;
 36D : 92;
 36E : a5;
 36F : a6;
 370 : a7;
 371 : a8;
 372 : a9;
 373 : aa;
 374 : ab;
 375 : ac;
 376 : ad;
 377 : ae;
 378 : a3;
 379 : af;
 37A : d0;
 37B : d1;
 37C : d2;
 37D : a3;
 37E : d3;
 37F : a4;
 380 : a3;
 381 : e9;
 382 : eb;
 383 : 88;
 384 : d4;
 385 : d5;
 386 : d6;
 387 : d7;
 388 : d8;
 389 : d9;
 38A : da;
 38B : db;
 38C : 88;
 38D : 88;
 38E : dc;
 38F : d7;
 390 : dd;
 391 : de;
 392 : df;
 393 : e0;
 394 : e1;
 395 : e2;
 396 : e3;
 397 : a3;
 398 : e9;
 399 : e7;
 39A : ea;
 39B : ea;
 39C : ea;
 39D : ea;
 39E : ea;
 39F : ea;
 3A0 : ea;
 3A1 : ea;
 3A2 : ea;
 3A3 : ea;
 3A4 : ea;
 3A5 : ea;
 3A6 : ea;
 3A7 : ea;
 3A8 : ea;
 3A9 : ea;
 3AA : ea;
 3AB : ea;
 3AC : ea;
 3AD : ea;
 3AE : ea;
 3AF : e6;
 3B0 : 20;
 3B1 : 65;
 3B2 : b0;
 3B3 : b3;
 3B4 : b2;
 3B5 : 20;
 3B6 : 20;
 3B7 : 20;
 3B8 : 20;
 3B9 : b4;
 3BA : b5;
 3BB : b6;
 3BC : b7;
 3BD : b8;
 3BE : b9;
 3BF : ba;
 3C0 : bb;
 3C1 : 20;
 3C2 : 20;
 3C3 : 20;
 3C4 : b1;
 3C5 : b3;
 3C6 : b2;
 3C7 : ff;
 3C8 : 22;
 3C9 : 0c;
 3CA : 31;
 3CB : 20;
 3CC : 50;
 3CD : 4c;
 3CE : 41;
 3CF : 59;
 3D0 : 45;
 3D1 : 52;
 3D2 : ff;
 3D3 : 22;
 3D4 : 4c;
 3D5 : 32;
 3D6 : 20;
 3D7 : 50;
 3D8 : 4c;
 3D9 : 41;
 3DA : 59;
 3DB : 45;
 3DC : 52;
 3DD : 53;
 3DE : ff;
 3DF : 22;
 3E0 : e3;
 3E1 : 54;
 3E2 : 4d;
 3E3 : 20;
 3E4 : cc;
 3E5 : 20;
 3E6 : 5d;
 3E7 : 20;
 3E8 : 31;
 3E9 : 39;
 3EA : 38;
 3EB : 30;
 3EC : 20;
 3ED : 31;
 3EE : 39;
 3EF : 39;
 3F0 : 33;
 3F1 : 20;
 3F2 : 4e;
 3F3 : 41;
 3F4 : 4d;
 3F5 : 43;
 3F6 : 4f;
 3F7 : 20;
 3F8 : 4c;
 3F9 : 54;
 3FA : 44;
 3FB : 5b;
 3FC : ff;
 3FD : 23;
 3FE : 27;
 3FF : 4e;
 400 : 41;
 401 : 4d;
 402 : 43;
 403 : 4f;
 404 : 20;
 405 : 48;
 406 : 4f;
 407 : 4d;
 408 : 45;
 409 : 54;
 40A : 45;
 40B : 4b;
 40C : cd;
 40D : 49;
 40E : 4e;
 40F : 43;
 410 : 5b;
 411 : ff;
 412 : 23;
 413 : 66;
 414 : 4c;
 415 : 49;
 416 : 43;
 417 : 45;
 418 : 4e;
 419 : 53;
 41A : 45;
 41B : 44;
 41C : 20;
 41D : 42;
 41E : 59;
 41F : 20;
 420 : 4e;
 421 : 49;
 422 : 4e;
 423 : 54;
 424 : 45;
 425 : 4e;
 426 : 44;
 427 : 4f;
 428 : ff;
 429 : 22;
 42A : 93;
 42B : ce;
 42C : cf;
 42D : ff;
 42E : 22;
 42F : ac;
 430 : 23;
 431 : 24;
 432 : 25;
 433 : 26;
 434 : 27;
 435 : 28;
 436 : 29;
 437 : 2a;
 438 : 2b;
 439 : ff;
 43A : 20;
 43B : fc;
 43C : 0e;
 43D : 0f;
 43E : ff;
 43F : 0f;
 440 : 20;
 441 : 0f;
 442 : 06;
 443 : 0f;
 444 : 26;
 445 : 20;
 446 : 27;
 447 : 0f;
 448 : 06;
 449 : 0f;
 44A : 26;
 44B : 0f;
 44C : 06;
 44D : 20;
 44E : 26;
 44F : 0f;
 450 : 27;
 451 : 20;
 452 : 06;
 453 : 0f;
 454 : 11;
 455 : 20;
 456 : 33;
 457 : 0f;
 458 : 20;
 459 : 20;
 45A : 21;
 45B : 0f;
 45C : 09;
 45D : 20;
 45E : 17;
 45F : 80;
 460 : a0;
 461 : a0;
 462 : a0;
 463 : a0;
 464 : a0;
 465 : a0;
 466 : 00;
 467 : 00;
 468 : 66;
 469 : 55;
 46A : 55;
 46B : 55;
 46C : 55;
 46D : dd;
 46E : 00;
 46F : 08;
 470 : 0a;
 471 : 0a;
 472 : 0a;
 473 : 0a;
 474 : 0a;
 475 : 0a;
 476 : 00;
 477 : a5;
 478 : 87;
 479 : 05;
 47A : 88;
 47B : d0;
 47C : 19;
 47D : a0;
 47E : 00;
 47F : b9;
 480 : 07;
 481 : c5;
 482 : 99;
 483 : 4b;
 484 : 02;
 485 : c8;
 486 : c9;
 487 : ff;
 488 : d0;
 489 : f5;
 48A : a5;
 48B : 4d;
 48C : 29;
 48D : 04;
 48E : 85;
 48F : 50;
 490 : a5;
 491 : 4d;
 492 : 29;
 493 : 08;
 494 : 85;
 495 : 51;
 496 : 18;
 497 : a9;
 498 : 01;
 499 : 65;
 49A : 87;
 49B : 85;
 49C : 87;
 49D : a5;
 49E : 88;
 49F : 69;
 4A0 : 00;
 4A1 : 85;
 4A2 : 88;
 4A3 : c9;
 4A4 : 02;
 4A5 : d0;
 4A6 : 0b;
 4A7 : a9;
 4A8 : 00;
 4A9 : 85;
 4AA : 87;
 4AB : a9;
 4AC : 04;
 4AD : 85;
 4AE : 3f;
 4AF : 4c;
 4B0 : 50;
 4B1 : c2;
 4B2 : a5;
 4B3 : 4d;
 4B4 : 29;
 4B5 : 04;
 4B6 : c5;
 4B7 : 50;
 4B8 : f0;
 4B9 : 2f;
 4BA : 85;
 4BB : 50;
 4BC : a9;
 4BD : 00;
 4BE : 85;
 4BF : 88;
 4C0 : a9;
 4C1 : 01;
 4C2 : 85;
 4C3 : 87;
 4C4 : a5;
 4C5 : 50;
 4C6 : f0;
 4C7 : 21;
 4C8 : a2;
 4C9 : 00;
 4CA : e6;
 4CB : 47;
 4CC : a5;
 4CD : 47;
 4CE : 29;
 4CF : 01;
 4D0 : 85;
 4D1 : 47;
 4D2 : f0;
 4D3 : 01;
 4D4 : e8;
 4D5 : bd;
 4D6 : 0f;
 4D7 : c5;
 4D8 : 8d;
 4D9 : 4d;
 4DA : 02;
 4DB : bd;
 4DC : 10;
 4DD : c5;
 4DE : 8d;
 4DF : 51;
 4E0 : 02;
 4E1 : a9;
 4E2 : 22;
 4E3 : 8d;
 4E4 : 4b;
 4E5 : 02;
 4E6 : 4c;
 4E7 : 50;
 4E8 : c2;
 4E9 : a5;
 4EA : 4d;
 4EB : 29;
 4EC : 08;
 4ED : c5;
 4EE : 51;
 4EF : d0;
 4F0 : 03;
 4F1 : 4c;
 4F2 : 50;
 4F3 : c2;
 4F4 : 85;
 4F5 : 51;
 4F6 : a5;
 4F7 : 51;
 4F8 : d0;
 4F9 : 03;
 4FA : 4c;
 4FB : 50;
 4FC : c2;
 4FD : a9;
 4FE : 00;
 4FF : 85;
 500 : 48;
 501 : 20;
 502 : b4;
 503 : ee;
 504 : 4c;
 505 : 54;
 506 : ca;
 507 : 22;
 508 : 0a;
 509 : 5c;
 50A : 00;
 50B : 22;
 50C : 4a;
 50D : 20;
 50E : ff;
 50F : 5c;
 510 : 20;
 511 : 5c;
 512 : a5;
 513 : 4d;
 514 : 29;
 515 : 0c;
 516 : f0;
 517 : 07;
 518 : a9;
 519 : 02;
 51A : 85;
 51B : 3f;
 51C : 4c;
 51D : e7;
 51E : c1;
 51F : a4;
 520 : 87;
 521 : b9;
 522 : 2e;
 523 : c5;
 524 : 85;
 525 : 10;
 526 : b9;
 527 : 2f;
 528 : c5;
 529 : 85;
 52A : 11;
 52B : 6c;
 52C : 10;
 52D : 00;
 52E : 46;
 52F : c5;
 530 : 73;
 531 : c5;
 532 : 73;
 533 : c5;
 534 : 73;
 535 : c5;
 536 : 73;
 537 : c5;
 538 : 73;
 539 : c5;
 53A : 73;
 53B : c5;
 53C : 73;
 53D : c5;
 53E : 73;
 53F : c5;
 540 : 73;
 541 : c5;
 542 : 89;
 543 : c5;
 544 : 92;
 545 : c7;
 546 : a9;
 547 : 01;
 548 : 85;
 549 : 40;
 54A : a5;
 54B : 40;
 54C : d0;
 54D : fc;
 54E : a9;
 54F : 08;
 550 : 8d;
 551 : 00;
 552 : 20;
 553 : 85;
 554 : 43;
 555 : a9;
 556 : 00;
 557 : 8d;
 558 : 01;
 559 : 20;
 55A : 85;
 55B : 88;
 55C : 20;
 55D : d8;
 55E : c5;
 55F : 20;
 560 : 08;
 561 : c6;
 562 : 20;
 563 : a6;
 564 : c5;
 565 : e6;
 566 : 87;
 567 : e6;
 568 : 87;
 569 : a9;
 56A : 88;
 56B : 8d;
 56C : 00;
 56D : 20;
 56E : 85;
 56F : 43;
 570 : 4c;
 571 : 50;
 572 : c2;
 573 : e6;
 574 : 88;
 575 : a5;
 576 : 88;
 577 : c9;
 578 : 30;
 579 : d0;
 57A : 0b;
 57B : a9;
 57C : 00;
 57D : 85;
 57E : 88;
 57F : 20;
 580 : a6;
 581 : c5;
 582 : e6;
 583 : 87;
 584 : e6;
 585 : 87;
 586 : 4c;
 587 : 50;
 588 : c2;
 589 : e6;
 58A : 88;
 58B : a5;
 58C : 88;
 58D : c9;
 58E : 80;
 58F : f0;
 590 : 03;
 591 : 4c;
 592 : 50;
 593 : c2;
 594 : e6;
 595 : 87;
 596 : e6;
 597 : 87;
 598 : a9;
 599 : 00;
 59A : 85;
 59B : 88;
 59C : 4c;
 59D : 50;
 59E : c2;
 59F : a9;
 5A0 : 01;
 5A1 : 85;
 5A2 : 47;
 5A3 : 4c;
 5A4 : 54;
 5A5 : ca;
 5A6 : a4;
 5A7 : 87;
 5A8 : b9;
 5A9 : 87;
 5AA : c6;
 5AB : 85;
 5AC : 00;
 5AD : b9;
 5AE : 88;
 5AF : c6;
 5B0 : 85;
 5B1 : 01;
 5B2 : a0;
 5B3 : 00;
 5B4 : b1;
 5B5 : 00;
 5B6 : 99;
 5B7 : 4b;
 5B8 : 02;
 5B9 : c8;
 5BA : c9;
 5BB : ff;
 5BC : d0;
 5BD : f6;
 5BE : b1;
 5BF : 00;
 5C0 : f0;
 5C1 : 01;
 5C2 : 60;
 5C3 : a5;
 5C4 : 87;
 5C5 : 38;
 5C6 : e9;
 5C7 : 02;
 5C8 : 0a;
 5C9 : 0a;
 5CA : a8;
 5CB : a2;
 5CC : 10;
 5CD : b9;
 5CE : 2e;
 5CF : c7;
 5D0 : 99;
 5D1 : 60;
 5D2 : 07;
 5D3 : c8;
 5D4 : ca;
 5D5 : d0;
 5D6 : f6;
 5D7 : 60;
 5D8 : a9;
 5D9 : 20;
 5DA : 8d;
 5DB : 06;
 5DC : 20;
 5DD : a9;
 5DE : c0;
 5DF : 8d;
 5E0 : 06;
 5E1 : 20;
 5E2 : a9;
 5E3 : 17;
 5E4 : 85;
 5E5 : 00;
 5E6 : a9;
 5E7 : 1c;
 5E8 : 85;
 5E9 : 01;
 5EA : a9;
 5EB : 2d;
 5EC : 8d;
 5ED : 07;
 5EE : 20;
 5EF : 8d;
 5F0 : 07;
 5F1 : 20;
 5F2 : a9;
 5F3 : 20;
 5F4 : 8d;
 5F5 : 07;
 5F6 : 20;
 5F7 : c6;
 5F8 : 01;
 5F9 : d0;
 5FA : f9;
 5FB : a9;
 5FC : 2d;
 5FD : 8d;
 5FE : 07;
 5FF : 20;
 600 : 8d;
 601 : 07;
 602 : 20;
 603 : c6;
 604 : 00;
 605 : 10;
 606 : df;
 607 : 60;
 608 : a9;
 609 : 23;
 60A : 8d;
 60B : 06;
 60C : 20;
 60D : a9;
 60E : c8;
 60F : 8d;
 610 : 06;
 611 : 20;
 612 : a0;
 613 : 00;
 614 : b9;
 615 : 6e;
 616 : c7;
 617 : 8d;
 618 : 07;
 619 : 20;
 61A : c8;
 61B : c0;
 61C : 24;
 61D : d0;
 61E : f5;
 61F : a0;
 620 : 00;
 621 : b9;
 622 : 9b;
 623 : c6;
 624 : 8d;
 625 : 06;
 626 : 20;
 627 : c8;
 628 : b9;
 629 : 9b;
 62A : c6;
 62B : 8d;
 62C : 06;
 62D : 20;
 62E : c8;
 62F : b9;
 630 : 9b;
 631 : c6;
 632 : c9;
 633 : ff;
 634 : f0;
 635 : 06;
 636 : 8d;
 637 : 07;
 638 : 20;
 639 : c8;
 63A : d0;
 63B : f3;
 63C : ad;
 63D : 02;
 63E : 20;
 63F : a9;
 640 : 3f;
 641 : 8d;
 642 : 06;
 643 : 20;
 644 : a9;
 645 : 00;
 646 : 8d;
 647 : 06;
 648 : 20;
 649 : a0;
 64A : 00;
 64B : b9;
 64C : 67;
 64D : c6;
 64E : 8d;
 64F : 07;
 650 : 20;
 651 : c8;
 652 : c0;
 653 : 20;
 654 : d0;
 655 : f5;
 656 : a9;
 657 : 3f;
 658 : 8d;
 659 : 06;
 65A : 20;
 65B : a9;
 65C : 00;
 65D : 8d;
 65E : 06;
 65F : 20;
 660 : 8d;
 661 : 06;
 662 : 20;
 663 : 8d;
 664 : 06;
 665 : 20;
 666 : 60;
 667 : 0f;
 668 : 20;
 669 : 0f;
 66A : 06;
 66B : 0f;
 66C : 06;
 66D : 0f;
 66E : 33;
 66F : 0f;
 670 : 33;
 671 : 0f;
 672 : 27;
 673 : 0f;
 674 : 17;
 675 : 0f;
 676 : 21;
 677 : 0f;
 678 : 27;
 679 : 20;
 67A : 06;
 67B : 0f;
 67C : 11;
 67D : 20;
 67E : 33;
 67F : 0f;
 680 : 20;
 681 : 20;
 682 : 21;
 683 : 0f;
 684 : 09;
 685 : 20;
 686 : 17;
 687 : 9b;
 688 : c6;
 689 : b3;
 68A : c6;
 68B : be;
 68C : c6;
 68D : c9;
 68E : c6;
 68F : d4;
 690 : c6;
 691 : de;
 692 : c6;
 693 : ea;
 694 : c6;
 695 : f3;
 696 : c6;
 697 : fd;
 698 : c6;
 699 : 07;
 69A : c7;
 69B : 20;
 69C : e6;
 69D : 43;
 69E : 48;
 69F : 41;
 6A0 : 52;
 6A1 : 41;
 6A2 : 43;
 6A3 : 54;
 6A4 : 45;
 6A5 : 52;
 6A6 : 20;
 6A7 : 3b;
 6A8 : 20;
 6A9 : 20;
 6AA : 4e;
 6AB : 49;
 6AC : 43;
 6AD : 4b;
 6AE : 4e;
 6AF : 41;
 6B0 : 4d;
 6B1 : 45;
 6B2 : ff;
 6B3 : 21;
 6B4 : 48;
 6B5 : 3a;
 6B6 : 53;
 6B7 : 48;
 6B8 : 41;
 6B9 : 44;
 6BA : 4f;
 6BB : 57;
 6BC : ff;
 6BD : 00;
 6BE : 21;
 6BF : 53;
 6C0 : 5f;
 6C1 : 42;
 6C2 : 4c;
 6C3 : 49;
 6C4 : 4e;
 6C5 : 4b;
 6C6 : 59;
 6C7 : 5f;
 6C8 : ff;
 6C9 : 21;
 6CA : a8;
 6CB : 3a;
 6CC : 53;
 6CD : 50;
 6CE : 45;
 6CF : 45;
 6D0 : 44;
 6D1 : 59;
 6D2 : ff;
 6D3 : 00;
 6D4 : 21;
 6D5 : b3;
 6D6 : 5f;
 6D7 : 50;
 6D8 : 49;
 6D9 : 4e;
 6DA : 4b;
 6DB : 59;
 6DC : 5f;
 6DD : ff;
 6DE : 22;
 6DF : 08;
 6E0 : b6;
 6E1 : c1;
 6E2 : c3;
 6E3 : b7;
 6E4 : b4;
 6E5 : c2;
 6E6 : b3;
 6E7 : c4;
 6E8 : ff;
 6E9 : 00;
 6EA : 22;
 6EB : 13;
 6EC : c8;
 6ED : b5;
 6EE : c5;
 6EF : c0;
 6F0 : c6;
 6F1 : c8;
 6F2 : ff;
 6F3 : 22;
 6F4 : 68;
 6F5 : 3a;
 6F6 : 50;
 6F7 : 4f;
 6F8 : 4b;
 6F9 : 45;
 6FA : 59;
 6FB : ff;
 6FC : 00;
 6FD : 22;
 6FE : 73;
 6FF : 5f;
 700 : 43;
 701 : 4c;
 702 : 59;
 703 : 44;
 704 : 45;
 705 : 5f;
 706 : ff;
 707 : 22;
 708 : ad;
 709 : 03;
 70A : 20;
 70B : 31;
 70C : 30;
 70D : 20;
 70E : 50;
 70F : 54;
 710 : 53;
 711 : 00;
 712 : 22;
 713 : ed;
 714 : 01;
 715 : 20;
 716 : 35;
 717 : 30;
 718 : 20;
 719 : 50;
 71A : 54;
 71B : 53;
 71C : 00;
 71D : 23;
 71E : 34;
 71F : ce;
 720 : cf;
 721 : 00;
 722 : 23;
 723 : 4d;
 724 : 23;
 725 : 24;
 726 : 25;
 727 : 26;
 728 : 27;
 729 : 28;
 72A : 29;
 72B : 2a;
 72C : 2b;
 72D : ff;
 72E : 48;
 72F : 1c;
 730 : 40;
 731 : 26;
 732 : 48;
 733 : 1b;
 734 : 40;
 735 : 2e;
 736 : 50;
 737 : 1f;
 738 : 40;
 739 : 26;
 73A : 50;
 73B : 1d;
 73C : 40;
 73D : 2e;
 73E : 60;
 73F : 1c;
 740 : 41;
 741 : 26;
 742 : 60;
 743 : 1b;
 744 : 41;
 745 : 2e;
 746 : 68;
 747 : 1f;
 748 : 41;
 749 : 26;
 74A : 68;
 74B : 1d;
 74C : 41;
 74D : 2e;
 74E : 78;
 74F : 1c;
 750 : 42;
 751 : 26;
 752 : 78;
 753 : 1b;
 754 : 42;
 755 : 2e;
 756 : 80;
 757 : 1f;
 758 : 42;
 759 : 26;
 75A : 80;
 75B : 1d;
 75C : 42;
 75D : 2e;
 75E : 90;
 75F : 1c;
 760 : 43;
 761 : 26;
 762 : 90;
 763 : 1b;
 764 : 43;
 765 : 2e;
 766 : 98;
 767 : 1f;
 768 : 43;
 769 : 26;
 76A : 98;
 76B : 1d;
 76C : 43;
 76D : 2e;
 76E : 00;
 76F : 00;
 770 : 00;
 771 : 00;
 772 : 00;
 773 : 00;
 774 : 00;
 775 : 00;
 776 : 55;
 777 : 55;
 778 : 55;
 779 : 55;
 77A : 55;
 77B : 55;
 77C : 55;
 77D : 55;
 77E : aa;
 77F : aa;
 780 : aa;
 781 : aa;
 782 : aa;
 783 : aa;
 784 : aa;
 785 : aa;
 786 : ff;
 787 : ff;
 788 : ff;
 789 : ff;
 78A : ff;
 78B : ff;
 78C : ff;
 78D : ff;
 78E : aa;
 78F : aa;
 790 : aa;
 791 : 22;
 792 : a4;
 793 : 88;
 794 : b9;
 795 : a1;
 796 : c7;
 797 : 85;
 798 : 10;
 799 : b9;
 79A : a2;
 79B : c7;
 79C : 85;
 79D : 11;
 79E : 6c;
 79F : 10;
 7A0 : 00;
 7A1 : a7;
 7A2 : c7;
 7A3 : f2;
 7A4 : c7;
 7A5 : 57;
 7A6 : c8;
 7A7 : a0;
 7A8 : 00;
 7A9 : b9;
 7AA : d8;
 7AB : c9;
 7AC : 99;
 7AD : 4b;
 7AE : 02;
 7AF : c8;
 7B0 : c9;
 7B1 : ff;
 7B2 : d0;
 7B3 : f5;
 7B4 : a9;
 7B5 : ff;
 7B6 : 85;
 7B7 : 1a;
 7B8 : a9;
 7B9 : 00;
 7BA : 85;
 7BB : 1b;
 7BC : 85;
 7BD : 89;
 7BE : 85;
 7BF : 8a;
 7C0 : a9;
 7C1 : f4;
 7C2 : 8d;
 7C3 : 74;
 7C4 : 02;
 7C5 : a9;
 7C6 : a8;
 7C7 : 8d;
 7C8 : 76;
 7C9 : 02;
 7CA : a9;
 7CB : 01;
 7CC : 8d;
 7CD : 8c;
 7CE : 02;
 7CF : a9;
 7D0 : 20;
 7D1 : 8d;
 7D2 : 92;
 7D3 : 02;
 7D4 : a9;
 7D5 : 00;
 7D6 : a8;
 7D7 : 99;
 7D8 : 1e;
 7D9 : 00;
 7DA : c8;
 7DB : c0;
 7DC : 14;
 7DD : d0;
 7DE : f8;
 7DF : a8;
 7E0 : 99;
 7E1 : 78;
 7E2 : 02;
 7E3 : c8;
 7E4 : c0;
 7E5 : 14;
 7E6 : d0;
 7E7 : f8;
 7E8 : 20;
 7E9 : f1;
 7EA : da;
 7EB : e6;
 7EC : 88;
 7ED : e6;
 7EE : 88;
 7EF : 4c;
 7F0 : 50;
 7F1 : c2;
 7F2 : 20;
 7F3 : dc;
 7F4 : c8;
 7F5 : 20;
 7F6 : b8;
 7F7 : c9;
 7F8 : ad;
 7F9 : 74;
 7FA : 02;
 7FB : c9;
 7FC : e0;
 7FD : f0;
 7FE : 0c;
 7FF : c9;
 800 : d1;
 801 : f0;
 802 : 08;
 803 : c9;
 804 : c2;
 805 : f0;
 806 : 04;
 807 : c9;
 808 : b3;
 809 : d0;
 80A : 03;
 80B : 20;
 80C : a8;
 80D : c8;
 80E : ad;
 80F : 74;
 810 : 02;
 811 : c9;
 812 : 40;
 813 : f0;
 814 : 03;
 815 : 4c;
 816 : 50;
 817 : c2;
 818 : a0;
 819 : 00;
 81A : a9;
 81B : 00;
 81C : 99;
 81D : 1e;
 81E : 00;
 81F : a9;
 820 : c0;
 821 : 99;
 822 : 1f;
 823 : 00;
 824 : c8;
 825 : c8;
 826 : c8;
 827 : c8;
 828 : c0;
 829 : 10;
 82A : d0;
 82B : ee;
 82C : a9;
 82D : 01;
 82E : 85;
 82F : 1a;
 830 : a9;
 831 : 50;
 832 : 85;
 833 : 1b;
 834 : a9;
 835 : 01;
 836 : 8d;
 837 : 93;
 838 : 02;
 839 : 8d;
 83A : 94;
 83B : 02;
 83C : 8d;
 83D : 95;
 83E : 02;
 83F : 8d;
 840 : 96;
 841 : 02;
 842 : a9;
 843 : 00;
 844 : 85;
 845 : 89;
 846 : a9;
 847 : 22;
 848 : 8d;
 849 : 4b;
 84A : 02;
 84B : a9;
 84C : 20;
 84D : 8d;
 84E : 4d;
 84F : 02;
 850 : e6;
 851 : 88;
 852 : e6;
 853 : 88;
 854 : 4c;
 855 : 50;
 856 : c2;
 857 : a5;
 858 : 8a;
 859 : f0;
 85A : 47;
 85B : 20;
 85C : 2e;
 85D : c9;
 85E : c6;
 85F : 8a;
 860 : f0;
 861 : 03;
 862 : 4c;
 863 : 50;
 864 : c2;
 865 : a0;
 866 : 00;
 867 : b9;
 868 : 8d;
 869 : 02;
 86A : 29;
 86B : e0;
 86C : d0;
 86D : 03;
 86E : c8;
 86F : d0;
 870 : f6;
 871 : a9;
 872 : 00;
 873 : 99;
 874 : 8d;
 875 : 02;
 876 : a9;
 877 : 00;
 878 : 99;
 879 : 93;
 87A : 02;
 87B : 98;
 87C : 0a;
 87D : 0a;
 87E : a8;
 87F : a9;
 880 : 00;
 881 : 99;
 882 : 78;
 883 : 02;
 884 : 99;
 885 : 7a;
 886 : 02;
 887 : 99;
 888 : 1e;
 889 : 00;
 88A : 99;
 88B : 1f;
 88C : 00;
 88D : a9;
 88E : a8;
 88F : 8d;
 890 : 76;
 891 : 02;
 892 : a5;
 893 : 89;
 894 : c9;
 895 : 04;
 896 : f0;
 897 : 03;
 898 : 4c;
 899 : 50;
 89A : c2;
 89B : a9;
 89C : 01;
 89D : 85;
 89E : 47;
 89F : 4c;
 8A0 : 54;
 8A1 : ca;
 8A2 : 20;
 8A3 : dc;
 8A4 : c8;
 8A5 : 4c;
 8A6 : 50;
 8A7 : c2;
 8A8 : a0;
 8A9 : 00;
 8AA : 84;
 8AB : 00;
 8AC : b9;
 8AD : 78;
 8AE : 02;
 8AF : f0;
 8B0 : 08;
 8B1 : e6;
 8B2 : 00;
 8B3 : c8;
 8B4 : c8;
 8B5 : c8;
 8B6 : c8;
 8B7 : d0;
 8B8 : f3;
 8B9 : a9;
 8BA : f4;
 8BB : 99;
 8BC : 78;
 8BD : 02;
 8BE : a9;
 8BF : a8;
 8C0 : 99;
 8C1 : 7a;
 8C2 : 02;
 8C3 : a9;
 8C4 : ff;
 8C5 : 99;
 8C6 : 1e;
 8C7 : 00;
 8C8 : a9;
 8C9 : 00;
 8CA : 99;
 8CB : 1f;
 8CC : 00;
 8CD : a4;
 8CE : 00;
 8CF : a5;
 8D0 : 89;
 8D1 : 99;
 8D2 : 93;
 8D3 : 02;
 8D4 : a9;
 8D5 : 0c;
 8D6 : 99;
 8D7 : 8d;
 8D8 : 02;
 8D9 : e6;
 8DA : 89;
 8DB : 60;
 8DC : 20;
 8DD : 19;
 8DE : ea;
 8DF : 20;
 8E0 : 2e;
 8E1 : c9;
 8E2 : 20;
 8E3 : fa;
 8E4 : c9;
 8E5 : 20;
 8E6 : eb;
 8E7 : c8;
 8E8 : 4c;
 8E9 : f1;
 8EA : da;
 8EB : a5;
 8EC : 1a;
 8ED : 10;
 8EE : 01;
 8EF : 60;
 8F0 : ad;
 8F1 : 74;
 8F2 : 02;
 8F3 : 18;
 8F4 : 69;
 8F5 : 08;
 8F6 : 85;
 8F7 : 00;
 8F8 : a0;
 8F9 : 00;
 8FA : 84;
 8FB : 01;
 8FC : b9;
 8FD : 78;
 8FE : 02;
 8FF : f0;
 900 : 04;
 901 : c5;
 902 : 00;
 903 : 90;
 904 : 0b;
 905 : e6;
 906 : 01;
 907 : c8;
 908 : c8;
 909 : c8;
 90A : c8;
 90B : c0;
 90C : 10;
 90D : d0;
 90E : ed;
 90F : 60;
 910 : a4;
 911 : 89;
 912 : e6;
 913 : 89;
 914 : a9;
 915 : 40;
 916 : 85;
 917 : 8a;
 918 : b9;
 919 : ee;
 91A : c9;
 91B : a4;
 91C : 01;
 91D : 99;
 91E : 8d;
 91F : 02;
 920 : a9;
 921 : 00;
 922 : 99;
 923 : 93;
 924 : 02;
 925 : a9;
 926 : 00;
 927 : 8d;
 928 : 8c;
 929 : 02;
 92A : 8d;
 92B : 76;
 92C : 02;
 92D : 60;
 92E : a5;
 92F : 1e;
 930 : 85;
 931 : 00;
 932 : a5;
 933 : 1f;
 934 : 85;
 935 : 01;
 936 : a0;
 937 : 00;
 938 : b9;
 939 : 22;
 93A : 00;
 93B : 99;
 93C : 1e;
 93D : 00;
 93E : b9;
 93F : 23;
 940 : 00;
 941 : 99;
 942 : 1f;
 943 : 00;
 944 : c8;
 945 : c8;
 946 : c8;
 947 : c8;
 948 : c0;
 949 : 0c;
 94A : d0;
 94B : ec;
 94C : a5;
 94D : 00;
 94E : 85;
 94F : 2a;
 950 : a5;
 951 : 01;
 952 : 85;
 953 : 2b;
 954 : ad;
 955 : 78;
 956 : 02;
 957 : 85;
 958 : 00;
 959 : ad;
 95A : 79;
 95B : 02;
 95C : 85;
 95D : 01;
 95E : ad;
 95F : 7a;
 960 : 02;
 961 : 85;
 962 : 02;
 963 : ad;
 964 : 7b;
 965 : 02;
 966 : 85;
 967 : 03;
 968 : a0;
 969 : 00;
 96A : b9;
 96B : 7c;
 96C : 02;
 96D : 99;
 96E : 78;
 96F : 02;
 970 : c8;
 971 : c0;
 972 : 0c;
 973 : d0;
 974 : f5;
 975 : a5;
 976 : 00;
 977 : 8d;
 978 : 84;
 979 : 02;
 97A : a5;
 97B : 01;
 97C : 8d;
 97D : 85;
 97E : 02;
 97F : a5;
 980 : 02;
 981 : 8d;
 982 : 86;
 983 : 02;
 984 : a5;
 985 : 03;
 986 : 8d;
 987 : 87;
 988 : 02;
 989 : ad;
 98A : 8d;
 98B : 02;
 98C : 85;
 98D : 00;
 98E : a0;
 98F : 00;
 990 : b9;
 991 : 8e;
 992 : 02;
 993 : 99;
 994 : 8d;
 995 : 02;
 996 : c8;
 997 : c0;
 998 : 03;
 999 : d0;
 99A : f5;
 99B : a5;
 99C : 00;
 99D : 8d;
 99E : 90;
 99F : 02;
 9A0 : ad;
 9A1 : 93;
 9A2 : 02;
 9A3 : 85;
 9A4 : 00;
 9A5 : a0;
 9A6 : 00;
 9A7 : b9;
 9A8 : 94;
 9A9 : 02;
 9AA : 99;
 9AB : 93;
 9AC : 02;
 9AD : c8;
 9AE : c0;
 9AF : 03;
 9B0 : d0;
 9B1 : f5;
 9B2 : a5;
 9B3 : 00;
 9B4 : 8d;
 9B5 : 96;
 9B6 : 02;
 9B7 : 60;
 9B8 : a5;
 9B9 : 4b;
 9BA : 29;
 9BB : 07;
 9BC : f0;
 9BD : 01;
 9BE : 60;
 9BF : a2;
 9C0 : 00;
 9C1 : a0;
 9C2 : 00;
 9C3 : a5;
 9C4 : 4b;
 9C5 : 29;
 9C6 : 08;
 9C7 : f0;
 9C8 : 02;
 9C9 : a0;
 9CA : 04;
 9CB : b9;
 9CC : f2;
 9CD : c9;
 9CE : 9d;
 9CF : 4b;
 9D0 : 02;
 9D1 : e8;
 9D2 : c8;
 9D3 : e0;
 9D4 : 04;
 9D5 : d0;
 9D6 : f4;
 9D7 : 60;
 9D8 : 22;
 9D9 : ad;
 9DA : 2d;
 9DB : 2d;
 9DC : 2d;
 9DD : 2d;
 9DE : 2d;
 9DF : 2d;
 9E0 : 2d;
 9E1 : 2d;
 9E2 : 00;
 9E3 : 22;
 9E4 : ed;
 9E5 : 2d;
 9E6 : 2d;
 9E7 : 2d;
 9E8 : 2d;
 9E9 : 2d;
 9EA : 2d;
 9EB : 2d;
 9EC : 2d;
 9ED : ff;
 9EE : 2d;
 9EF : 2f;
 9F0 : 32;
 9F1 : 34;
 9F2 : 22;
 9F3 : c7;
 9F4 : 20;
 9F5 : ff;
 9F6 : 22;
 9F7 : c7;
 9F8 : 01;
 9F9 : ff;
 9FA : a2;
 9FB : 00;
 9FC : a5;
 9FD : 1a;
 9FE : 30;
 9FF : 02;
 A00 : a2;
 A01 : 0a;
 A02 : 86;
 A03 : 00;
 A04 : e6;
 A05 : b7;
 A06 : a5;
 A07 : b7;
 A08 : 29;
 A09 : 07;
 A0A : 18;
 A0B : 65;
 A0C : 00;
 A0D : a8;
 A0E : b9;
 A0F : 40;
 A10 : ca;
 A11 : 8d;
 A12 : 8c;
 A13 : 02;
 A14 : a5;
 A15 : 4b;
 A16 : 29;
 A17 : 07;
 A18 : f0;
 A19 : 01;
 A1A : 60;
 A1B : a5;
 A1C : 4b;
 A1D : 29;
 A1E : 08;
 A1F : f0;
 A20 : 02;
 A21 : a9;
 A22 : 01;
 A23 : 18;
 A24 : 65;
 A25 : 00;
 A26 : 69;
 A27 : 08;
 A28 : a8;
 A29 : b9;
 A2A : 40;
 A2B : ca;
 A2C : 85;
 A2D : 00;
 A2E : a0;
 A2F : 00;
 A30 : b9;
 A31 : 8d;
 A32 : 02;
 A33 : f0;
 A34 : 05;
 A35 : a5;
 A36 : 00;
 A37 : 99;
 A38 : 8d;
 A39 : 02;
 A3A : c8;
 A3B : c0;
 A3C : 04;
 A3D : d0;
 A3E : f1;
 A3F : 60;
 A40 : 04;
 A41 : 04;
 A42 : 04;
 A43 : 05;
 A44 : 05;
 A45 : 04;
 A46 : 01;
 A47 : 01;
 A48 : 0c;
 A49 : 0d;
 A4A : 08;
 A4B : 08;
 A4C : 08;
 A4D : 09;
 A4E : 09;
 A4F : 08;
 A50 : 01;
 A51 : 01;
 A52 : 1e;
 A53 : 1f;
 A54 : a9;
 A55 : 08;
 A56 : 8d;
 A57 : 00;
 A58 : 20;
 A59 : 85;
 A5A : 43;
 A5B : ad;
 A5C : 02;
 A5D : 20;
 A5E : 10;
 A5F : fb;
 A60 : a9;
 A61 : 00;
 A62 : 8d;
 A63 : 01;
 A64 : 20;
 A65 : 85;
 A66 : 3f;
 A67 : 85;
 A68 : 46;
 A69 : 85;
 A6A : 69;
 A6B : 85;
 A6C : 4a;
 A6D : 20;
 A6E : 85;
 A6F : e3;
 A70 : 20;
 A71 : 02;
 A72 : e5;
 A73 : 20;
 A74 : ff;
 A75 : e3;
 A76 : a5;
 A77 : 48;
 A78 : f0;
 A79 : 06;
 A7A : a9;
 A7B : 01;
 A7C : 85;
 A7D : 67;
 A7E : d0;
 A7F : 17;
 A80 : a9;
 A81 : 00;
 A82 : a8;
 A83 : 99;
 A84 : 67;
 A85 : 00;
 A86 : c8;
 A87 : c0;
 A88 : 20;
 A89 : d0;
 A8A : f8;
 A8B : a9;
 A8C : 03;
 A8D : 85;
 A8E : 67;
 A8F : 85;
 A90 : 77;
 A91 : 8d;
 A92 : 00;
 A93 : 06;
 A94 : 8d;
 A95 : 01;
 A96 : 06;
 A97 : a9;
 A98 : ff;
 A99 : 85;
 A9A : 68;
 A9B : 85;
 A9C : 78;
 A9D : 8d;
 A9E : 45;
 A9F : 02;
 AA0 : a9;
 AA1 : 88;
 AA2 : 85;
 AA3 : 43;
 AA4 : 8d;
 AA5 : 00;
 AA6 : 20;
 AA7 : a9;
 AA8 : 01;
 AA9 : 85;
 AAA : 40;
 AAB : a5;
 AAC : 40;
 AAD : d0;
 AAE : fc;
 AAF : a5;
 AB0 : 48;
 AB1 : f0;
 AB2 : 0d;
 AB3 : a5;
 AB4 : 4d;
 AB5 : 29;
 AB6 : 0c;
 AB7 : f0;
 AB8 : 07;
 AB9 : a9;
 ABA : 02;
 ABB : 85;
 ABC : 3f;
 ABD : 4c;
 ABE : e7;
 ABF : c1;
 AC0 : a5;
 AC1 : 4c;
 AC2 : f0;
 AC3 : 04;
 AC4 : c6;
 AC5 : 4c;
 AC6 : d0;
 AC7 : df;
 AC8 : a4;
 AC9 : 3f;
 ACA : b9;
 ACB : d7;
 ACC : ca;
 ACD : 85;
 ACE : 10;
 ACF : b9;
 AD0 : d8;
 AD1 : ca;
 AD2 : 85;
 AD3 : 11;
 AD4 : 6c;
 AD5 : 10;
 AD6 : 00;
 AD7 : f3;
 AD8 : ce;
 AD9 : 67;
 ADA : cb;
 ADB : e9;
 ADC : ca;
 ADD : d9;
 ADE : cc;
 ADF : 06;
 AE0 : cd;
 AE1 : 1f;
 AE2 : ce;
 AE3 : b0;
 AE4 : cd;
 AE5 : d6;
 AE6 : e6;
 AE7 : bf;
 AE8 : e7;
 AE9 : ad;
 AEA : 0f;
 AEB : 06;
 AEC : f0;
 AED : 03;
 AEE : 4c;
 AEF : a7;
 AF0 : ca;
 AF1 : a5;
 AF2 : 4d;
 AF3 : 29;
 AF4 : 08;
 AF5 : c5;
 AF6 : 49;
 AF7 : f0;
 AF8 : 38;
 AF9 : 85;
 AFA : 49;
 AFB : a5;
 AFC : 49;
 AFD : f0;
 AFE : 32;
 AFF : e6;
 B00 : 4a;
 B01 : a2;
 B02 : 22;
 B03 : a5;
 B04 : 47;
 B05 : 25;
 B06 : 46;
 B07 : f0;
 B08 : 02;
 B09 : a2;
 B0A : 2a;
 B0B : 8e;
 B0C : 4b;
 B0D : 02;
 B0E : a9;
 B0F : 37;
 B10 : 8d;
 B11 : 4c;
 B12 : 02;
 B13 : a2;
 B14 : 06;
 B15 : a0;
 B16 : 00;
 B17 : a5;
 B18 : 4a;
 B19 : 29;
 B1A : 01;
 B1B : f0;
 B1C : 05;
 B1D : a2;
 B1E : 00;
 B1F : 8d;
 B20 : 0f;
 B21 : 06;
 B22 : bd;
 B23 : 5b;
 B24 : cb;
 B25 : 99;
 B26 : 4d;
 B27 : 02;
 B28 : e8;
 B29 : c8;
 B2A : c0;
 B2B : 06;
 B2C : d0;
 B2D : f4;
 B2E : 4c;
 B2F : a7;
 B30 : ca;
 B31 : a5;
 B32 : 4a;
 B33 : 29;
 B34 : 01;
 B35 : f0;
 B36 : 03;
 B37 : 4c;
 B38 : a7;
 B39 : ca;
 B3A : 20;
 B3B : a0;
 B3C : d1;
 B3D : 20;
 B3E : 7c;
 B3F : df;
 B40 : 20;
 B41 : 90;
 B42 : d3;
 B43 : 20;
 B44 : 8e;
 B45 : d9;
 B46 : 20;
 B47 : 57;
 B48 : d5;
 B49 : 20;
 B4A : cc;
 B4B : d9;
 B4C : 20;
 B4D : 5e;
 B4E : d9;
 B4F : 20;
 B50 : 5e;
 B51 : de;
 B52 : 20;
 B53 : a4;
 B54 : d2;
 B55 : 20;
 B56 : 40;
 B57 : da;
 B58 : 4c;
 B59 : a7;
 B5A : ca;
 B5B : 50;
 B5C : 41;
 B5D : 55;
 B5E : 53;
 B5F : 45;
 B60 : ff;
 B61 : 2d;
 B62 : 2d;
 B63 : 2d;
 B64 : 2d;
 B65 : 2d;
 B66 : ff;
 B67 : a5;
 B68 : 87;
 B69 : f0;
 B6A : 03;
 B6B : 4c;
 B6C : e4;
 B6D : cb;
 B6E : a9;
 B6F : 60;
 B70 : 85;
 B71 : 00;
 B72 : a9;
 B73 : 07;
 B74 : 85;
 B75 : 01;
 B76 : a5;
 B77 : 48;
 B78 : d0;
 B79 : 6a;
 B7A : a9;
 B7B : 02;
 B7C : 85;
 B7D : 04;
 B7E : a0;
 B7F : 00;
 B80 : 84;
 B81 : 05;
 B82 : 84;
 B83 : 06;
 B84 : 84;
 B85 : 07;
 B86 : a6;
 B87 : 06;
 B88 : bd;
 B89 : c0;
 B8A : cc;
 B8B : 85;
 B8C : 02;
 B8D : bd;
 B8E : c1;
 B8F : cc;
 B90 : 85;
 B91 : 03;
 B92 : a6;
 B93 : 07;
 B94 : bd;
 B95 : c6;
 B96 : cc;
 B97 : 85;
 B98 : 08;
 B99 : a5;
 B9A : 03;
 B9B : 91;
 B9C : 00;
 B9D : a6;
 B9E : 05;
 B9F : bd;
 BA0 : 9c;
 BA1 : cc;
 BA2 : c8;
 BA3 : 91;
 BA4 : 00;
 BA5 : bd;
 BA6 : ae;
 BA7 : cc;
 BA8 : c8;
 BA9 : 91;
 BAA : 00;
 BAB : a5;
 BAC : 02;
 BAD : c8;
 BAE : 91;
 BAF : 00;
 BB0 : a5;
 BB1 : 02;
 BB2 : 18;
 BB3 : 69;
 BB4 : 08;
 BB5 : 85;
 BB6 : 02;
 BB7 : c8;
 BB8 : e6;
 BB9 : 05;
 BBA : c6;
 BBB : 08;
 BBC : d0;
 BBD : db;
 BBE : e6;
 BBF : 06;
 BC0 : e6;
 BC1 : 06;
 BC2 : e6;
 BC3 : 07;
 BC4 : a5;
 BC5 : 69;
 BC6 : d0;
 BC7 : 04;
 BC8 : a5;
 BC9 : 68;
 BCA : d0;
 BCB : 18;
 BCC : c6;
 BCD : 04;
 BCE : f0;
 BCF : 04;
 BD0 : 10;
 BD1 : b4;
 BD2 : 30;
 BD3 : 10;
 BD4 : a5;
 BD5 : 47;
 BD6 : f0;
 BD7 : 0c;
 BD8 : a5;
 BD9 : 46;
 BDA : f0;
 BDB : aa;
 BDC : e6;
 BDD : 05;
 BDE : e6;
 BDF : 05;
 BE0 : e6;
 BE1 : 05;
 BE2 : d0;
 BE3 : a2;
 BE4 : a5;
 BE5 : 87;
 BE6 : c9;
 BE7 : c0;
 BE8 : d0;
 BE9 : 03;
 BEA : 4c;
 BEB : 7c;
 BEC : cc;
 BED : e6;
 BEE : 87;
 BEF : a5;
 BF0 : 87;
 BF1 : c9;
 BF2 : 78;
 BF3 : f0;
 BF4 : 03;
 BF5 : 4c;
 BF6 : 99;
 BF7 : cc;
 BF8 : a9;
 BF9 : a8;
 BFA : 85;
 BFB : 1c;
 BFC : a9;
 BFD : 60;
 BFE : 85;
 BFF : 1a;
 C00 : 85;
 C01 : 1e;
 C02 : 85;
 C03 : 22;
 C04 : a9;
 C05 : 58;
 C06 : 85;
 C07 : 26;
 C08 : 85;
 C09 : 20;
 C0A : a9;
 C0B : 68;
 C0C : 85;
 C0D : 2a;
 C0E : a9;
 C0F : 70;
 C10 : 85;
 C11 : 24;
 C12 : 85;
 C13 : 28;
 C14 : 85;
 C15 : 2c;
 C16 : a9;
 C17 : 00;
 C18 : a8;
 C19 : 99;
 C1A : 78;
 C1B : 07;
 C1C : c8;
 C1D : c0;
 C1E : 24;
 C1F : d0;
 C20 : f8;
 C21 : a5;
 C22 : 47;
 C23 : 25;
 C24 : 46;
 C25 : f0;
 C26 : 02;
 C27 : a9;
 C28 : 08;
 C29 : 85;
 C2A : 00;
 C2B : a5;
 C2C : 67;
 C2D : 38;
 C2E : e9;
 C2F : 01;
 C30 : 0a;
 C31 : a8;
 C32 : b9;
 C33 : d1;
 C34 : cc;
 C35 : 18;
 C36 : 65;
 C37 : 00;
 C38 : 85;
 C39 : 00;
 C3A : b9;
 C3B : d2;
 C3C : cc;
 C3D : 85;
 C3E : 01;
 C3F : a5;
 C40 : 00;
 C41 : 8d;
 C42 : 4b;
 C43 : 02;
 C44 : a5;
 C45 : 01;
 C46 : 8d;
 C47 : 4c;
 C48 : 02;
 C49 : a9;
 C4A : 2d;
 C4B : 8d;
 C4C : 4d;
 C4D : 02;
 C4E : 8d;
 C4F : 4e;
 C50 : 02;
 C51 : a9;
 C52 : 00;
 C53 : 8d;
 C54 : 4f;
 C55 : 02;
 C56 : a5;
 C57 : 00;
 C58 : 8d;
 C59 : 50;
 C5A : 02;
 C5B : a5;
 C5C : 01;
 C5D : 18;
 C5E : 69;
 C5F : 20;
 C60 : 8d;
 C61 : 51;
 C62 : 02;
 C63 : a9;
 C64 : 2d;
 C65 : 8d;
 C66 : 52;
 C67 : 02;
 C68 : 8d;
 C69 : 53;
 C6A : 02;
 C6B : a9;
 C6C : ff;
 C6D : 8d;
 C6E : 54;
 C6F : 02;
 C70 : 20;
 C71 : 8e;
 C72 : d9;
 C73 : 20;
 C74 : cc;
 C75 : d9;
 C76 : 20;
 C77 : 40;
 C78 : da;
 C79 : 4c;
 C7A : 99;
 C7B : cc;
 C7C : ad;
 C7D : 00;
 C7E : 06;
 C7F : 0d;
 C80 : 01;
 C81 : 06;
 C82 : d0;
 C83 : 15;
 C84 : a5;
 C85 : 48;
 C86 : d0;
 C87 : 0d;
 C88 : a9;
 C89 : 00;
 C8A : 85;
 C8B : 69;
 C8C : a8;
 C8D : 99;
 C8E : 60;
 C8F : 07;
 C90 : c8;
 C91 : c0;
 C92 : a0;
 C93 : d0;
 C94 : f8;
 C95 : a9;
 C96 : 04;
 C97 : 85;
 C98 : 3f;
 C99 : 4c;
 C9A : a7;
 C9B : ca;
 C9C : c6;
 C9D : c3;
 C9E : c1;
 C9F : ba;
 CA0 : c7;
 CA1 : bb;
 CA2 : b0;
 CA3 : b1;
 CA4 : b2;
 CA5 : b3;
 CA6 : b4;
 CA7 : b5;
 CA8 : b6;
 CA9 : b7;
 CAA : b4;
 CAB : b8;
 CAC : b9;
 CAD : b6;
 CAE : 00;
 CAF : 00;
 CB0 : 00;
 CB1 : 00;
 CB2 : 00;
 CB3 : 00;
 CB4 : 02;
 CB5 : 02;
 CB6 : 02;
 CB7 : 02;
 CB8 : 02;
 CB9 : 02;
 CBA : 02;
 CBB : 02;
 CBC : 02;
 CBD : 02;
 CBE : 02;
 CBF : 02;
 CC0 : 44;
 CC1 : 88;
 CC2 : 44;
 CC3 : 60;
 CC4 : 50;
 CC5 : 70;
 CC6 : 06;
 CC7 : 06;
 CC8 : 03;
 CC9 : c0;
 CCA : c1;
 CCB : c2;
 CCC : c3;
 CCD : c4;
 CCE : c5;
 CCF : c3;
 CD0 : c6;
 CD1 : 23;
 CD2 : 17;
 CD3 : 23;
 CD4 : 19;
 CD5 : 23;
 CD6 : 1b;
 CD7 : 23;
 CD8 : 57;
 CD9 : e6;
 CDA : da;
 CDB : a9;
 CDC : 28;
 CDD : c5;
 CDE : da;
 CDF : d0;
 CE0 : 16;
 CE1 : a9;
 CE2 : 02;
 CE3 : 85;
 CE4 : da;
 CE5 : a9;
 CE6 : 04;
 CE7 : 85;
 CE8 : 3f;
 CE9 : a9;
 CEA : 08;
 CEB : a2;
 CEC : fe;
 CED : e8;
 CEE : e8;
 CEF : d5;
 CF0 : b8;
 CF1 : d0;
 CF2 : fa;
 CF3 : a9;
 CF4 : 06;
 CF5 : 95;
 CF6 : b8;
 CF7 : 20;
 CF8 : 5e;
 CF9 : de;
 CFA : 20;
 CFB : 14;
 CFC : d9;
 CFD : 20;
 CFE : cc;
 CFF : d9;
 D00 : 20;
 D01 : 40;
 D02 : da;
 D03 : 4c;
 D04 : a7;
 D05 : ca;
 D06 : a5;
 D07 : 87;
 D08 : d0;
 D09 : 23;
 D0A : c6;
 D0B : db;
 D0C : d0;
 D0D : 13;
 D0E : e6;
 D0F : 87;
 D10 : a9;
 D11 : 0a;
 D12 : 85;
 D13 : db;
 D14 : 8d;
 D15 : 03;
 D16 : 06;
 D17 : a9;
 D18 : 00;
 D19 : aa;
 D1A : 95;
 D1B : 1e;
 D1C : e8;
 D1D : e0;
 D1E : 14;
 D1F : d0;
 D20 : f9;
 D21 : 20;
 D22 : 5e;
 D23 : de;
 D24 : 20;
 D25 : cc;
 D26 : d9;
 D27 : 20;
 D28 : 40;
 D29 : da;
 D2A : 4c;
 D2B : a7;
 D2C : ca;
 D2D : c6;
 D2E : db;
 D2F : 10;
 D30 : 0f;
 D31 : a9;
 D32 : 0a;
 D33 : 85;
 D34 : db;
 D35 : a5;
 D36 : 32;
 D37 : 18;
 D38 : 69;
 D39 : 01;
 D3A : 85;
 D3B : 32;
 D3C : c9;
 D3D : 1e;
 D3E : f0;
 D3F : 09;
 D40 : 20;
 D41 : 5e;
 D42 : de;
 D43 : 20;
 D44 : 40;
 D45 : da;
 D46 : 4c;
 D47 : a7;
 D48 : ca;
 D49 : a5;
 D4A : 48;
 D4B : d0;
 D4C : 3c;
 D4D : c6;
 D4E : 67;
 D4F : d0;
 D50 : 0d;
 D51 : a9;
 D52 : 00;
 D53 : 85;
 D54 : 87;
 D55 : 85;
 D56 : 69;
 D57 : a9;
 D58 : 0a;
 D59 : 85;
 D5A : 3f;
 D5B : 4c;
 D5C : a7;
 D5D : ca;
 D5E : a9;
 D5F : 00;
 D60 : 85;
 D61 : 3f;
 D62 : a9;
 D63 : 01;
 D64 : 85;
 D65 : 69;
 D66 : a5;
 D67 : 47;
 D68 : f0;
 D69 : 04;
 D6A : a5;
 D6B : 77;
 D6C : d0;
 D6D : 26;
 D6E : a5;
 D6F : 67;
 D70 : d0;
 D71 : 3b;
 D72 : 85;
 D73 : 69;
 D74 : a5;
 D75 : 46;
 D76 : f0;
 D77 : 11;
 D78 : a2;
 D79 : 0f;
 D7A : b5;
 D7B : 67;
 D7C : 85;
 D7D : 00;
 D7E : b5;
 D7F : 77;
 D80 : 95;
 D81 : 67;
 D82 : a5;
 D83 : 00;
 D84 : 95;
 D85 : 77;
 D86 : ca;
 D87 : 10;
 D88 : f1;
 D89 : a9;
 D8A : 00;
 D8B : 85;
 D8C : 46;
 D8D : a9;
 D8E : 00;
 D8F : 85;
 D90 : 3f;
 D91 : 4c;
 D92 : e7;
 D93 : c1;
 D94 : a2;
 D95 : 0f;
 D96 : b5;
 D97 : 67;
 D98 : 85;
 D99 : 00;
 D9A : b5;
 D9B : 77;
 D9C : 95;
 D9D : 67;
 D9E : a5;
 D9F : 00;
 DA0 : 95;
 DA1 : 77;
 DA2 : ca;
 DA3 : 10;
 DA4 : f1;
 DA5 : e6;
 DA6 : 46;
 DA7 : a5;
 DA8 : 46;
 DA9 : 29;
 DAA : 01;
 DAB : 85;
 DAC : 46;
 DAD : 4c;
 DAE : a7;
 DAF : ca;
 DB0 : a5;
 DB1 : 87;
 DB2 : d0;
 DB3 : 11;
 DB4 : a2;
 DB5 : 00;
 DB6 : 95;
 DB7 : 1e;
 DB8 : e8;
 DB9 : e0;
 DBA : 14;
 DBB : d0;
 DBC : f9;
 DBD : e6;
 DBE : 87;
 DBF : a9;
 DC0 : 01;
 DC1 : 85;
 DC2 : 32;
 DC3 : d0;
 DC4 : 51;
 DC5 : a5;
 DC6 : 4b;
 DC7 : 29;
 DC8 : 07;
 DC9 : d0;
 DCA : 4b;
 DCB : a2;
 DCC : 11;
 DCD : a5;
 DCE : 87;
 DCF : 29;
 DD0 : 01;
 DD1 : d0;
 DD2 : 02;
 DD3 : a2;
 DD4 : 20;
 DD5 : 8e;
 DD6 : 9e;
 DD7 : 02;
 DD8 : a9;
 DD9 : 0f;
 DDA : 8d;
 DDB : 99;
 DDC : 02;
 DDD : e6;
 DDE : 87;
 DDF : a9;
 DE0 : 10;
 DE1 : c5;
 DE2 : 87;
 DE3 : d0;
 DE4 : 31;
 DE5 : a9;
 DE6 : 00;
 DE7 : 85;
 DE8 : 1a;
 DE9 : 85;
 DEA : 1c;
 DEB : 85;
 DEC : 87;
 DED : a5;
 DEE : 68;
 DEF : c9;
 DF0 : 01;
 DF1 : f0;
 DF2 : 18;
 DF3 : e6;
 DF4 : 87;
 DF5 : e6;
 DF6 : 87;
 DF7 : c9;
 DF8 : 04;
 DF9 : f0;
 DFA : 10;
 DFB : e6;
 DFC : 87;
 DFD : e6;
 DFE : 87;
 DFF : c9;
 E00 : 08;
 E01 : f0;
 E02 : 08;
 E03 : c9;
 E04 : 0c;
 E05 : f0;
 E06 : 04;
 E07 : c9;
 E08 : 10;
 E09 : d0;
 E0A : 07;
 E0B : a9;
 E0C : 0e;
 E0D : 85;
 E0E : 3f;
 E0F : 4c;
 E10 : 16;
 E11 : ce;
 E12 : a9;
 E13 : 00;
 E14 : 85;
 E15 : 3f;
 E16 : 20;
 E17 : 5e;
 E18 : de;
 E19 : 20;
 E1A : 40;
 E1B : da;
 E1C : 4c;
 E1D : a7;
 E1E : ca;
 E1F : a5;
 E20 : 87;
 E21 : f0;
 E22 : 03;
 E23 : 4c;
 E24 : aa;
 E25 : ce;
 E26 : a0;
 E27 : 00;
 E28 : a9;
 E29 : ff;
 E2A : 99;
 E2B : 00;
 E2C : 07;
 E2D : c8;
 E2E : c0;
 E2F : 60;
 E30 : d0;
 E31 : f8;
 E32 : a9;
 E33 : 60;
 E34 : 85;
 E35 : 00;
 E36 : a9;
 E37 : 07;
 E38 : 85;
 E39 : 01;
 E3A : a9;
 E3B : 03;
 E3C : 85;
 E3D : 04;
 E3E : a0;
 E3F : 00;
 E40 : 84;
 E41 : 05;
 E42 : 84;
 E43 : 06;
 E44 : 84;
 E45 : 07;
 E46 : a6;
 E47 : 06;
 E48 : bd;
 E49 : e7;
 E4A : ce;
 E4B : 85;
 E4C : 02;
 E4D : bd;
 E4E : e8;
 E4F : ce;
 E50 : 85;
 E51 : 03;
 E52 : a6;
 E53 : 07;
 E54 : bd;
 E55 : ef;
 E56 : ce;
 E57 : 85;
 E58 : 08;
 E59 : a5;
 E5A : 03;
 E5B : 91;
 E5C : 00;
 E5D : a6;
 E5E : 05;
 E5F : bd;
 E60 : bf;
 E61 : ce;
 E62 : c8;
 E63 : 91;
 E64 : 00;
 E65 : bd;
 E66 : d3;
 E67 : ce;
 E68 : c8;
 E69 : 91;
 E6A : 00;
 E6B : a5;
 E6C : 02;
 E6D : c8;
 E6E : 91;
 E6F : 00;
 E70 : a5;
 E71 : 02;
 E72 : 18;
 E73 : 69;
 E74 : 08;
 E75 : 85;
 E76 : 02;
 E77 : c8;
 E78 : e6;
 E79 : 05;
 E7A : c6;
 E7B : 08;
 E7C : d0;
 E7D : db;
 E7E : e6;
 E7F : 06;
 E80 : e6;
 E81 : 06;
 E82 : e6;
 E83 : 07;
 E84 : a5;
 E85 : 47;
 E86 : f0;
 E87 : 0a;
 E88 : a5;
 E89 : 77;
 E8A : d0;
 E8B : 06;
 E8C : a5;
 E8D : 04;
 E8E : c9;
 E8F : 02;
 E90 : f0;
 E91 : 18;
 E92 : c6;
 E93 : 04;
 E94 : f0;
 E95 : 04;
 E96 : 10;
 E97 : ae;
 E98 : 30;
 E99 : 10;
 E9A : a5;
 E9B : 47;
 E9C : f0;
 E9D : 0c;
 E9E : a5;
 E9F : 46;
 EA0 : f0;
 EA1 : a4;
 EA2 : e6;
 EA3 : 05;
 EA4 : e6;
 EA5 : 05;
 EA6 : e6;
 EA7 : 05;
 EA8 : d0;
 EA9 : 9c;
 EAA : e6;
 EAB : 87;
 EAC : d0;
 EAD : 0e;
 EAE : a9;
 EAF : 00;
 EB0 : a8;
 EB1 : 99;
 EB2 : 60;
 EB3 : 07;
 EB4 : c8;
 EB5 : c0;
 EB6 : a0;
 EB7 : d0;
 EB8 : f8;
 EB9 : 4c;
 EBA : 5e;
 EBB : cd;
 EBC : 4c;
 EBD : a7;
 EBE : ca;
 EBF : bc;
 EC0 : b2;
 EC1 : bd;
 EC2 : b4;
 EC3 : b6;
 EC4 : be;
 EC5 : b4;
 EC6 : b5;
 EC7 : b0;
 EC8 : b1;
 EC9 : b2;
 ECA : b3;
 ECB : b4;
 ECC : b5;
 ECD : b6;
 ECE : b7;
 ECF : b4;
 ED0 : b8;
 ED1 : b9;
 ED2 : b6;
 ED3 : 00;
 ED4 : 00;
 ED5 : 00;
 ED6 : 00;
 ED7 : 00;
 ED8 : 00;
 ED9 : 00;
 EDA : 00;
 EDB : 02;
 EDC : 02;
 EDD : 02;
 EDE : 02;
 EDF : 02;
 EE0 : 02;
 EE1 : 02;
 EE2 : 02;
 EE3 : 02;
 EE4 : 02;
 EE5 : 02;
 EE6 : 02;
 EE7 : 38;
 EE8 : 88;
 EE9 : 60;
 EEA : 88;
 EEB : 44;
 EEC : 60;
 EED : 50;
 EEE : 70;
 EEF : 04;
 EF0 : 04;
 EF1 : 06;
 EF2 : 03;
 EF3 : a9;
 EF4 : 01;
 EF5 : 85;
 EF6 : 40;
 EF7 : a5;
 EF8 : 40;
 EF9 : d0;
 EFA : fc;
 EFB : a9;
 EFC : 08;
 EFD : 8d;
 EFE : 00;
 EFF : 20;
 F00 : 85;
 F01 : 43;
 F02 : a9;
 F03 : 00;
 F04 : 8d;
 F05 : 01;
 F06 : 20;
 F07 : a2;
 F08 : 00;
 F09 : 95;
 F0A : 87;
 F0B : e8;
 F0C : e0;
 F0D : 69;
 F0E : d0;
 F0F : f9;
 F10 : aa;
 F11 : 9d;
 F12 : 00;
 F13 : 07;
 F14 : e8;
 F15 : d0;
 F16 : fa;
 F17 : a0;
 F18 : 00;
 F19 : b9;
 F1A : 11;
 F1B : d1;
 F1C : 99;
 F1D : 99;
 F1E : 02;
 F1F : c8;
 F20 : c0;
 F21 : 20;
 F22 : d0;
 F23 : f5;
 F24 : a9;
 F25 : 02;
 F26 : 85;
 F27 : 3f;
 F28 : a5;
 F29 : 69;
 F2A : d0;
 F2B : 1e;
 F2C : 85;
 F2D : 8b;
 F2E : a9;
 F2F : 01;
 F30 : 85;
 F31 : 6c;
 F32 : 85;
 F33 : 6d;
 F34 : 85;
 F35 : 6e;
 F36 : 85;
 F37 : 6f;
 F38 : a9;
 F39 : c0;
 F3A : 85;
 F3B : 6a;
 F3C : a5;
 F3D : 68;
 F3E : c9;
 F3F : 16;
 F40 : f0;
 F41 : 02;
 F42 : e6;
 F43 : 68;
 F44 : 20;
 F45 : 31;
 F46 : d1;
 F47 : 20;
 F48 : e2;
 F49 : e2;
 F4A : 20;
 F4B : ff;
 F4C : e3;
 F4D : 20;
 F4E : ab;
 F4F : d0;
 F50 : 20;
 F51 : 53;
 F52 : e5;
 F53 : 20;
 F54 : c1;
 F55 : e5;
 F56 : 20;
 F57 : 02;
 F58 : e5;
 F59 : a6;
 F5A : 68;
 F5B : a9;
 F5C : 00;
 F5D : 18;
 F5E : ca;
 F5F : 30;
 F60 : 04;
 F61 : 69;
 F62 : 06;
 F63 : d0;
 F64 : f9;
 F65 : 85;
 F66 : 00;
 F67 : aa;
 F68 : bd;
 F69 : b6;
 F6A : eb;
 F6B : aa;
 F6C : a9;
 F6D : 00;
 F6E : 18;
 F6F : ca;
 F70 : 30;
 F71 : 04;
 F72 : 69;
 F73 : 16;
 F74 : d0;
 F75 : f9;
 F76 : a8;
 F77 : a2;
 F78 : 00;
 F79 : b9;
 F7A : 40;
 F7B : ec;
 F7C : 95;
 F7D : 9f;
 F7E : e8;
 F7F : c8;
 F80 : e0;
 F81 : 16;
 F82 : d0;
 F83 : f5;
 F84 : a6;
 F85 : 00;
 F86 : bd;
 F87 : b6;
 F88 : eb;
 F89 : 0a;
 F8A : 0a;
 F8B : 0a;
 F8C : aa;
 F8D : a0;
 F8E : 00;
 F8F : 84;
 F90 : d0;
 F91 : bd;
 F92 : ae;
 F93 : ec;
 F94 : 85;
 F95 : cf;
 F96 : bd;
 F97 : ae;
 F98 : ec;
 F99 : 99;
 F9A : 97;
 F9B : 00;
 F9C : e8;
 F9D : c8;
 F9E : c0;
 F9F : 08;
 FA0 : d0;
 FA1 : f4;
 FA2 : e6;
 FA3 : 00;
 FA4 : a6;
 FA5 : 00;
 FA6 : bd;
 FA7 : b6;
 FA8 : eb;
 FA9 : 85;
 FAA : 8c;
 FAB : e6;
 FAC : 00;
 FAD : a6;
 FAE : 00;
 FAF : bd;
 FB0 : b6;
 FB1 : eb;
 FB2 : 0a;
 FB3 : aa;
 FB4 : bd;
 FB5 : ce;
 FB6 : ec;
 FB7 : 85;
 FB8 : 8d;
 FB9 : e8;
 FBA : bd;
 FBB : ce;
 FBC : ec;
 FBD : 85;
 FBE : 8e;
 FBF : e6;
 FC0 : 00;
 FC1 : a5;
 FC2 : 69;
 FC3 : f0;
 FC4 : 24;
 FC5 : a2;
 FC6 : 0c;
 FC7 : a0;
 FC8 : 00;
 FC9 : bd;
 FCA : dc;
 FCB : ec;
 FCC : 99;
 FCD : 8f;
 FCE : 00;
 FCF : c8;
 FD0 : e8;
 FD1 : a9;
 FD2 : c0;
 FD3 : 38;
 FD4 : e5;
 FD5 : 6a;
 FD6 : 85;
 FD7 : 01;
 FD8 : a5;
 FD9 : 01;
 FDA : 18;
 FDB : 7d;
 FDC : dc;
 FDD : ec;
 FDE : 99;
 FDF : 8f;
 FE0 : 00;
 FE1 : c8;
 FE2 : e8;
 FE3 : c0;
 FE4 : 04;
 FE5 : d0;
 FE6 : f1;
 FE7 : f0;
 FE8 : 16;
 FE9 : a6;
 FEA : 00;
 FEB : bd;
 FEC : b6;
 FED : eb;
 FEE : 0a;
 FEF : 0a;
 FF0 : aa;
 FF1 : a0;
 FF2 : 00;
 FF3 : bd;
 FF4 : dc;
 FF5 : ec;
 FF6 : 99;
 FF7 : 8f;
 FF8 : 00;
 FF9 : e8;
 FFA : c8;
 FFB : c0;
 FFC : 04;
 FFD : d0;
 FFE : f4;
 FFF : a9;
1000 : 04;
1001 : 85;
1002 : b8;
1003 : a9;
1004 : 01;
1005 : 85;
1006 : b9;
1007 : a5;
1008 : 8f;
1009 : 85;
100A : 01;
100B : a2;
100C : 00;
100D : c6;
100E : 01;
100F : f0;
1010 : 0c;
1011 : a9;
1012 : 02;
1013 : 95;
1014 : ba;
1015 : a9;
1016 : 00;
1017 : 95;
1018 : bb;
1019 : e8;
101A : e8;
101B : d0;
101C : f0;
101D : a9;
101E : 00;
101F : e0;
1020 : 06;
1021 : f0;
1022 : 08;
1023 : 95;
1024 : ba;
1025 : 95;
1026 : bb;
1027 : e8;
1028 : e8;
1029 : d0;
102A : f4;
102B : a5;
102C : 90;
102D : 85;
102E : d3;
102F : e6;
1030 : 00;
1031 : a6;
1032 : 00;
1033 : bd;
1034 : b6;
1035 : eb;
1036 : 85;
1037 : 93;
1038 : e6;
1039 : 00;
103A : a6;
103B : 00;
103C : bd;
103D : b6;
103E : eb;
103F : 85;
1040 : 96;
1041 : a5;
1042 : a5;
1043 : 85;
1044 : b5;
1045 : a5;
1046 : a6;
1047 : 85;
1048 : b6;
1049 : a5;
104A : af;
104B : 85;
104C : c4;
104D : 85;
104E : c6;
104F : 85;
1050 : c8;
1051 : 85;
1052 : ca;
1053 : a5;
1054 : b0;
1055 : 85;
1056 : c5;
1057 : 85;
1058 : c7;
1059 : 85;
105A : c9;
105B : 85;
105C : cb;
105D : a9;
105E : 01;
105F : 85;
1060 : 50;
1061 : 85;
1062 : 51;
1063 : a0;
1064 : 00;
1065 : a2;
1066 : 00;
1067 : a5;
1068 : 46;
1069 : 25;
106A : 47;
106B : f0;
106C : 02;
106D : a0;
106E : 09;
106F : b9;
1070 : ff;
1071 : d0;
1072 : 9d;
1073 : 6b;
1074 : 02;
1075 : c8;
1076 : e8;
1077 : e0;
1078 : 09;
1079 : d0;
107A : f4;
107B : a0;
107C : 00;
107D : b9;
107E : f3;
107F : d0;
1080 : 99;
1081 : 32;
1082 : 00;
1083 : c8;
1084 : c0;
1085 : 0c;
1086 : d0;
1087 : f5;
1088 : a0;
1089 : 00;
108A : b9;
108B : 6c;
108C : 00;
108D : c9;
108E : 02;
108F : d0;
1090 : 05;
1091 : a9;
1092 : 01;
1093 : 99;
1094 : 6c;
1095 : 00;
1096 : c8;
1097 : c0;
1098 : 04;
1099 : d0;
109A : ef;
109B : 84;
109C : c0;
109D : a9;
109E : ff;
109F : 85;
10A0 : 89;
10A1 : a9;
10A2 : 88;
10A3 : 8d;
10A4 : 00;
10A5 : 20;
10A6 : 85;
10A7 : 43;
10A8 : 4c;
10A9 : a7;
10AA : ca;
10AB : a0;
10AC : 22;
10AD : a5;
10AE : 46;
10AF : 25;
10B0 : 47;
10B1 : f0;
10B2 : 02;
10B3 : a0;
10B4 : 2a;
10B5 : 84;
10B6 : 00;
10B7 : a9;
10B8 : 56;
10B9 : 85;
10BA : 01;
10BB : a9;
10BC : 0a;
10BD : 85;
10BE : 02;
10BF : ad;
10C0 : 02;
10C1 : 20;
10C2 : a5;
10C3 : 00;
10C4 : 8d;
10C5 : 06;
10C6 : 20;
10C7 : a5;
10C8 : 01;
10C9 : 8d;
10CA : 06;
10CB : 20;
10CC : a9;
10CD : 06;
10CE : 85;
10CF : 03;
10D0 : a9;
10D1 : 20;
10D2 : 8d;
10D3 : 07;
10D4 : 20;
10D5 : c6;
10D6 : 03;
10D7 : d0;
10D8 : f9;
10D9 : a9;
10DA : 2d;
10DB : 8d;
10DC : 07;
10DD : 20;
10DE : 8d;
10DF : 07;
10E0 : 20;
10E1 : a5;
10E2 : 01;
10E3 : 18;
10E4 : 69;
10E5 : 20;
10E6 : 85;
10E7 : 01;
10E8 : a5;
10E9 : 00;
10EA : 69;
10EB : 00;
10EC : 85;
10ED : 00;
10EE : c6;
10EF : 02;
10F0 : d0;
10F1 : cd;
10F2 : 60;
10F3 : 04;
10F4 : 0c;
10F5 : 0a;
10F6 : 0a;
10F7 : 0a;
10F8 : 00;
10F9 : 00;
10FA : 00;
10FB : 01;
10FC : 02;
10FD : 03;
10FE : 00;
10FF : 21;
1100 : 36;
1101 : 20;
1102 : f7;
1103 : b0;
1104 : b3;
1105 : b2;
1106 : 20;
1107 : b6;
1108 : 29;
1109 : b6;
110A : 29;
110B : 77;
110C : b1;
110D : b3;
110E : b2;
110F : 28;
1110 : b6;
1111 : 0f;
1112 : 20;
1113 : 0f;
1114 : 06;
1115 : 0f;
1116 : 11;
1117 : 0f;
1118 : 27;
1119 : 0f;
111A : 16;
111B : 26;
111C : 06;
111D : 0f;
111E : 19;
111F : 17;
1120 : 12;
1121 : 0f;
1122 : 27;
1123 : 20;
1124 : 06;
1125 : 0f;
1126 : 11;
1127 : 20;
1128 : 33;
1129 : 0f;
112A : 21;
112B : 20;
112C : 21;
112D : 0f;
112E : 09;
112F : 20;
1130 : 17;
1131 : ad;
1132 : 02;
1133 : 20;
1134 : a9;
1135 : 23;
1136 : 8d;
1137 : 06;
1138 : 20;
1139 : a9;
113A : c0;
113B : 8d;
113C : 06;
113D : 20;
113E : a2;
113F : 01;
1140 : a0;
1141 : 00;
1142 : b9;
1143 : 60;
1144 : d1;
1145 : 8d;
1146 : 07;
1147 : 20;
1148 : c8;
1149 : c0;
114A : 40;
114B : d0;
114C : f5;
114D : ca;
114E : f0;
114F : 01;
1150 : 60;
1151 : ad;
1152 : 02;
1153 : 20;
1154 : a9;
1155 : 2b;
1156 : 8d;
1157 : 06;
1158 : 20;
1159 : a9;
115A : c0;
115B : 8d;
115C : 06;
115D : 20;
115E : d0;
115F : e0;
1160 : 55;
1161 : 55;
1162 : 55;
1163 : 55;
1164 : 55;
1165 : 11;
1166 : 00;
1167 : 00;
1168 : 55;
1169 : 55;
116A : 55;
116B : 55;
116C : 55;
116D : 11;
116E : 00;
116F : 00;
1170 : 55;
1171 : 55;
1172 : 55;
1173 : 55;
1174 : 55;
1175 : 11;
1176 : 00;
1177 : 00;
1178 : 55;
1179 : 55;
117A : 55;
117B : 55;
117C : 55;
117D : 51;
117E : 50;
117F : 50;
1180 : 55;
1181 : 55;
1182 : 55;
1183 : 55;
1184 : 55;
1185 : 11;
1186 : 05;
1187 : 05;
1188 : 55;
1189 : 55;
118A : 55;
118B : 55;
118C : 55;
118D : 11;
118E : 00;
118F : 00;
1190 : 55;
1191 : 55;
1192 : 55;
1193 : 55;
1194 : 55;
1195 : 55;
1196 : 55;
1197 : 55;
1198 : 55;
1199 : 55;
119A : 55;
119B : 55;
119C : 55;
119D : 55;
119E : 55;
119F : 55;
11A0 : a5;
11A1 : 89;
11A2 : 30;
11A3 : 3c;
11A4 : e6;
11A5 : 8a;
11A6 : a9;
11A7 : 3c;
11A8 : c5;
11A9 : 8a;
11AA : d0;
11AB : 1c;
11AC : a9;
11AD : 00;
11AE : 85;
11AF : 8a;
11B0 : c6;
11B1 : 89;
11B2 : 10;
11B3 : 14;
11B4 : 85;
11B5 : 88;
11B6 : a2;
11B7 : 00;
11B8 : b5;
11B9 : 39;
11BA : 29;
11BB : fc;
11BC : 85;
11BD : 00;
11BE : 8a;
11BF : 05;
11C0 : 00;
11C1 : 95;
11C2 : 39;
11C3 : e8;
11C4 : e0;
11C5 : 04;
11C6 : d0;
11C7 : f0;
11C8 : a5;
11C9 : 89;
11CA : c9;
11CB : 02;
11CC : b0;
11CD : 12;
11CE : a2;
11CF : 11;
11D0 : a5;
11D1 : 8a;
11D2 : 29;
11D3 : 08;
11D4 : d0;
11D5 : 02;
11D6 : a2;
11D7 : 20;
11D8 : 8e;
11D9 : ae;
11DA : 02;
11DB : a9;
11DC : 0f;
11DD : 8d;
11DE : a9;
11DF : 02;
11E0 : a5;
11E1 : 88;
11E2 : d0;
11E3 : 2f;
11E4 : a5;
11E5 : cf;
11E6 : c9;
11E7 : ff;
11E8 : f0;
11E9 : 29;
11EA : e6;
11EB : d1;
11EC : a5;
11ED : d1;
11EE : c9;
11EF : 3c;
11F0 : d0;
11F1 : 21;
11F2 : a9;
11F3 : 00;
11F4 : 85;
11F5 : d1;
11F6 : c6;
11F7 : cf;
11F8 : 10;
11F9 : 19;
11FA : e6;
11FB : d0;
11FC : a5;
11FD : d0;
11FE : 29;
11FF : 01;
1200 : f0;
1201 : 07;
1202 : 20;
1203 : 8e;
1204 : e0;
1205 : a9;
1206 : 0f;
1207 : d0;
1208 : 02;
1209 : a5;
120A : d2;
120B : 85;
120C : 87;
120D : a6;
120E : d0;
120F : b5;
1210 : 97;
1211 : 85;
1212 : cf;
1213 : a5;
1214 : d3;
1215 : f0;
1216 : 1f;
1217 : 18;
1218 : 65;
1219 : 6a;
121A : c9;
121B : c0;
121C : d0;
121D : 18;
121E : 20;
121F : 8a;
1220 : d2;
1221 : a5;
1222 : d3;
1223 : a2;
1224 : 00;
1225 : d5;
1226 : 8f;
1227 : d0;
1228 : 08;
1229 : e8;
122A : b5;
122B : 8f;
122C : 85;
122D : d3;
122E : 4c;
122F : 36;
1230 : d2;
1231 : e8;
1232 : e0;
1233 : 04;
1234 : d0;
1235 : ef;
1236 : e6;
1237 : d6;
1238 : a9;
1239 : 60;
123A : c5;
123B : d6;
123C : d0;
123D : 13;
123E : a9;
123F : 00;
1240 : 85;
1241 : d6;
1242 : e6;
1243 : d5;
1244 : a5;
1245 : d5;
1246 : c5;
1247 : 96;
1248 : d0;
1249 : 07;
124A : a9;
124B : 00;
124C : 85;
124D : d5;
124E : 20;
124F : 8a;
1250 : d2;
1251 : a6;
1252 : d4;
1253 : e0;
1254 : 02;
1255 : f0;
1256 : 17;
1257 : b5;
1258 : 8d;
1259 : c5;
125A : 6a;
125B : d0;
125C : 11;
125D : e6;
125E : d4;
125F : a9;
1260 : 01;
1261 : 85;
1262 : d2;
1263 : 8a;
1264 : 0a;
1265 : aa;
1266 : b5;
1267 : ab;
1268 : 85;
1269 : ca;
126A : b5;
126B : ac;
126C : 85;
126D : cb;
126E : 05;
126F : d7;
1270 : 05;
1271 : d8;
1272 : f0;
1273 : 15;
1274 : c6;
1275 : d8;
1276 : d0;
1277 : 11;
1278 : a5;
1279 : d7;
127A : f0;
127B : 07;
127C : c6;
127D : d7;
127E : a9;
127F : 3c;
1280 : 85;
1281 : d8;
1282 : 60;
1283 : 85;
1284 : 2e;
1285 : 85;
1286 : 30;
1287 : 85;
1288 : 8b;
1289 : 60;
128A : a2;
128B : 00;
128C : b5;
128D : ba;
128E : d0;
128F : 05;
1290 : a9;
1291 : 02;
1292 : 95;
1293 : ba;
1294 : 60;
1295 : e8;
1296 : e8;
1297 : e0;
1298 : 06;
1299 : d0;
129A : f1;
129B : 60;
129C : 24;
129D : 25;
129E : 26;
129F : 27;
12A0 : 28;
12A1 : 29;
12A2 : 2a;
12A3 : 2b;
12A4 : a5;
12A5 : 6a;
12A6 : d0;
12A7 : 01;
12A8 : 60;
12A9 : a9;
12AA : 1e;
12AB : 85;
12AC : 00;
12AD : a9;
12AE : 00;
12AF : 85;
12B0 : 01;
12B1 : a9;
12B2 : 01;
12B3 : 85;
12B4 : 02;
12B5 : a2;
12B6 : 00;
12B7 : b5;
12B8 : b8;
12B9 : c9;
12BA : 04;
12BB : d0;
12BC : 32;
12BD : a0;
12BE : 00;
12BF : a5;
12C0 : 1a;
12C1 : d1;
12C2 : 00;
12C3 : b0;
12C4 : 07;
12C5 : b1;
12C6 : 00;
12C7 : 38;
12C8 : e5;
12C9 : 1a;
12CA : b0;
12CB : 02;
12CC : f1;
12CD : 00;
12CE : c9;
12CF : 0a;
12D0 : b0;
12D1 : 1d;
12D2 : 85;
12D3 : 03;
12D4 : a0;
12D5 : 02;
12D6 : a5;
12D7 : 1c;
12D8 : d1;
12D9 : 00;
12DA : b0;
12DB : 07;
12DC : b1;
12DD : 00;
12DE : 38;
12DF : e5;
12E0 : 1c;
12E1 : b0;
12E2 : 02;
12E3 : f1;
12E4 : 00;
12E5 : c9;
12E6 : 0a;
12E7 : b0;
12E8 : 06;
12E9 : 65;
12EA : 03;
12EB : c9;
12EC : 05;
12ED : 90;
12EE : 10;
12EF : e8;
12F0 : e8;
12F1 : a5;
12F2 : 00;
12F3 : 18;
12F4 : 69;
12F5 : 04;
12F6 : 85;
12F7 : 00;
12F8 : 06;
12F9 : 02;
12FA : e0;
12FB : 0a;
12FC : d0;
12FD : b9;
12FE : 60;
12FF : e0;
1300 : 08;
1301 : f0;
1302 : 45;
1303 : a5;
1304 : 02;
1305 : 25;
1306 : 88;
1307 : f0;
1308 : 2e;
1309 : 8a;
130A : 4a;
130B : 85;
130C : 03;
130D : a4;
130E : d9;
130F : b9;
1310 : 6c;
1311 : d3;
1312 : a4;
1313 : 03;
1314 : 99;
1315 : 33;
1316 : 00;
1317 : a9;
1318 : 00;
1319 : 85;
131A : 32;
131B : a4;
131C : d9;
131D : b9;
131E : 7c;
131F : d3;
1320 : 85;
1321 : dd;
1322 : b9;
1323 : 78;
1324 : d3;
1325 : 85;
1326 : de;
1327 : e6;
1328 : d9;
1329 : a9;
132A : 08;
132B : 95;
132C : b8;
132D : 8d;
132E : 07;
132F : 06;
1330 : a9;
1331 : 06;
1332 : 85;
1333 : 3f;
1334 : 4c;
1335 : e6;
1336 : e0;
1337 : a9;
1338 : 08;
1339 : 85;
133A : 3f;
133B : a9;
133C : 12;
133D : 85;
133E : 32;
133F : a9;
1340 : 80;
1341 : 85;
1342 : db;
1343 : a9;
1344 : 00;
1345 : 85;
1346 : 87;
1347 : 60;
1348 : a5;
1349 : 8b;
134A : f0;
134B : 01;
134C : 60;
134D : 85;
134E : d7;
134F : a9;
1350 : 80;
1351 : 85;
1352 : d8;
1353 : 85;
1354 : 8b;
1355 : 8d;
1356 : 06;
1357 : 06;
1358 : a4;
1359 : 93;
135A : b9;
135B : 80;
135C : d3;
135D : 85;
135E : dd;
135F : b9;
1360 : 88;
1361 : d3;
1362 : 85;
1363 : de;
1364 : b9;
1365 : 70;
1366 : d3;
1367 : 85;
1368 : 37;
1369 : 4c;
136A : e6;
136B : e0;
136C : 2d;
136D : 2f;
136E : 32;
136F : 34;
1370 : 2c;
1371 : 2e;
1372 : 30;
1373 : 31;
1374 : 33;
1375 : 35;
1376 : 36;
1377 : 37;
1378 : 00;
1379 : 00;
137A : 00;
137B : 01;
137C : 02;
137D : 04;
137E : 08;
137F : 06;
1380 : 01;
1381 : 03;
1382 : 05;
1383 : 07;
1384 : 00;
1385 : 00;
1386 : 00;
1387 : 00;
1388 : 00;
1389 : 00;
138A : 00;
138B : 00;
138C : 01;
138D : 02;
138E : 03;
138F : 05;
1390 : a5;
1391 : 48;
1392 : f0;
1393 : 03;
1394 : 4c;
1395 : 06;
1396 : d5;
1397 : a5;
1398 : 4f;
1399 : 29;
139A : f0;
139B : f0;
139C : 35;
139D : a2;
139E : ff;
139F : e8;
13A0 : 0a;
13A1 : 90;
13A2 : fc;
13A3 : bd;
13A4 : 02;
13A5 : d5;
13A6 : 85;
13A7 : 50;
13A8 : 18;
13A9 : 69;
13AA : 02;
13AB : 29;
13AC : 03;
13AD : c5;
13AE : 51;
13AF : d0;
13B0 : 18;
13B1 : a5;
13B2 : 1a;
13B3 : 05;
13B4 : 1c;
13B5 : 29;
13B6 : 07;
13B7 : d0;
13B8 : 09;
13B9 : a4;
13BA : 50;
13BB : b9;
13BC : 2b;
13BD : 02;
13BE : 29;
13BF : f0;
13C0 : d0;
13C1 : 07;
13C2 : a5;
13C3 : 50;
13C4 : 85;
13C5 : 51;
13C6 : 4c;
13C7 : d6;
13C8 : d3;
13C9 : a6;
13CA : 50;
13CB : bd;
13CC : 2b;
13CD : 02;
13CE : 29;
13CF : f0;
13D0 : f0;
13D1 : 04;
13D2 : a5;
13D3 : 51;
13D4 : 85;
13D5 : 50;
13D6 : a2;
13D7 : 04;
13D8 : a5;
13D9 : 88;
13DA : d0;
13DB : 02;
13DC : a2;
13DD : 0a;
13DE : ad;
13DF : 2a;
13E0 : 02;
13E1 : c9;
13E2 : 01;
13E3 : f0;
13E4 : 10;
13E5 : c9;
13E6 : 02;
13E7 : f0;
13E8 : 0c;
13E9 : ca;
13EA : ca;
13EB : c9;
13EC : 03;
13ED : f0;
13EE : 06;
13EF : c9;
13F0 : 09;
13F1 : f0;
13F2 : 02;
13F3 : ca;
13F4 : ca;
13F5 : b5;
13F6 : 9f;
13F7 : 85;
13F8 : b5;
13F9 : b5;
13FA : a0;
13FB : 85;
13FC : b6;
13FD : a5;
13FE : 51;
13FF : 0a;
1400 : a8;
1401 : b9;
1402 : 0e;
1403 : d4;
1404 : 85;
1405 : 10;
1406 : b9;
1407 : 0f;
1408 : d4;
1409 : 85;
140A : 11;
140B : 6c;
140C : 10;
140D : 00;
140E : 16;
140F : d4;
1410 : 1a;
1411 : d4;
1412 : 35;
1413 : d4;
1414 : 31;
1415 : d4;
1416 : a2;
1417 : 02;
1418 : d0;
1419 : 02;
141A : a2;
141B : 00;
141C : b5;
141D : 1b;
141E : 38;
141F : e5;
1420 : b5;
1421 : 95;
1422 : 1b;
1423 : a9;
1424 : 00;
1425 : b0;
1426 : 02;
1427 : a9;
1428 : 01;
1429 : 18;
142A : 65;
142B : b6;
142C : 85;
142D : cc;
142E : 4c;
142F : 44;
1430 : d4;
1431 : a2;
1432 : 00;
1433 : f0;
1434 : 02;
1435 : a2;
1436 : 02;
1437 : b5;
1438 : 1b;
1439 : 18;
143A : 65;
143B : b5;
143C : 95;
143D : 1b;
143E : a9;
143F : 00;
1440 : 65;
1441 : b6;
1442 : 85;
1443 : cc;
1444 : c6;
1445 : cc;
1446 : 10;
1447 : 01;
1448 : 60;
1449 : a5;
144A : 51;
144B : 0a;
144C : a8;
144D : b9;
144E : 5a;
144F : d4;
1450 : 85;
1451 : 10;
1452 : b9;
1453 : 5b;
1454 : d4;
1455 : 85;
1456 : 11;
1457 : 6c;
1458 : 10;
1459 : 00;
145A : 9a;
145B : d4;
145C : 90;
145D : d4;
145E : 6c;
145F : d4;
1460 : 62;
1461 : d4;
1462 : a2;
1463 : 00;
1464 : 86;
1465 : 00;
1466 : a9;
1467 : 03;
1468 : 85;
1469 : 01;
146A : d0;
146B : 06;
146C : a2;
146D : 02;
146E : 86;
146F : 00;
1470 : 86;
1471 : 01;
1472 : b5;
1473 : 1a;
1474 : 18;
1475 : 69;
1476 : 01;
1477 : 95;
1478 : 1a;
1479 : 29;
147A : 04;
147B : d0;
147C : 44;
147D : a6;
147E : 01;
147F : bd;
1480 : 2b;
1481 : 02;
1482 : 29;
1483 : f0;
1484 : f0;
1485 : 3b;
1486 : a6;
1487 : 00;
1488 : b5;
1489 : 1a;
148A : 29;
148B : fc;
148C : 95;
148D : 1a;
148E : d0;
148F : 31;
1490 : a2;
1491 : 00;
1492 : 86;
1493 : 00;
1494 : a9;
1495 : 01;
1496 : 85;
1497 : 01;
1498 : d0;
1499 : 08;
149A : a2;
149B : 02;
149C : 86;
149D : 00;
149E : a9;
149F : 00;
14A0 : 85;
14A1 : 01;
14A2 : b5;
14A3 : 1a;
14A4 : 38;
14A5 : e9;
14A6 : 01;
14A7 : 95;
14A8 : 1a;
14A9 : 29;
14AA : 04;
14AB : f0;
14AC : 14;
14AD : a6;
14AE : 01;
14AF : bd;
14B0 : 2b;
14B1 : 02;
14B2 : 29;
14B3 : f0;
14B4 : f0;
14B5 : 0b;
14B6 : a6;
14B7 : 00;
14B8 : b5;
14B9 : 1a;
14BA : 18;
14BB : 69;
14BC : 04;
14BD : 29;
14BE : fc;
14BF : 95;
14C0 : 1a;
14C1 : a5;
14C2 : 1a;
14C3 : c9;
14C4 : 18;
14C5 : 90;
14C6 : 0a;
14C7 : c9;
14C8 : a9;
14C9 : b0;
14CA : 06;
14CB : a5;
14CC : 38;
14CD : 29;
14CE : df;
14CF : 90;
14D0 : 04;
14D1 : a9;
14D2 : 20;
14D3 : 05;
14D4 : 38;
14D5 : 85;
14D6 : 38;
14D7 : a5;
14D8 : 1a;
14D9 : c9;
14DA : 0b;
14DB : b0;
14DC : 06;
14DD : a9;
14DE : bf;
14DF : 85;
14E0 : 1a;
14E1 : d0;
14E2 : 08;
14E3 : c9;
14E4 : c0;
14E5 : 90;
14E6 : 04;
14E7 : a9;
14E8 : 0b;
14E9 : 85;
14EA : 1a;
14EB : a5;
14EC : 1a;
14ED : 05;
14EE : 1c;
14EF : 29;
14F0 : 07;
14F1 : d0;
14F2 : 0c;
14F3 : a5;
14F4 : 50;
14F5 : c5;
14F6 : 51;
14F7 : f0;
14F8 : 06;
14F9 : 85;
14FA : 51;
14FB : e6;
14FC : cc;
14FD : e6;
14FE : cc;
14FF : 4c;
1500 : 44;
1501 : d4;
1502 : 03;
1503 : 01;
1504 : 02;
1505 : 00;
1506 : a4;
1507 : e4;
1508 : c6;
1509 : e3;
150A : d0;
150B : 0b;
150C : e6;
150D : e4;
150E : e6;
150F : e4;
1510 : a4;
1511 : e4;
1512 : b9;
1513 : 1f;
1514 : d5;
1515 : 85;
1516 : e3;
1517 : b9;
1518 : 20;
1519 : d5;
151A : 29;
151B : 03;
151C : 4c;
151D : a6;
151E : d3;
151F : 00;
1520 : 01;
1521 : d0;
1522 : 00;
1523 : 28;
1524 : 01;
1525 : 28;
1526 : 02;
1527 : 90;
1528 : 03;
1529 : 38;
152A : 00;
152B : 20;
152C : 03;
152D : 18;
152E : 01;
152F : 60;
1530 : 02;
1531 : 30;
1532 : 01;
1533 : 10;
1534 : 02;
1535 : 48;
1536 : 01;
1537 : 18;
1538 : 02;
1539 : 40;
153A : 01;
153B : 20;
153C : 02;
153D : 18;
153E : 00;
153F : 20;
1540 : 03;
1541 : 40;
1542 : 02;
1543 : 38;
1544 : 01;
1545 : 18;
1546 : 02;
1547 : e0;
1548 : 03;
1549 : 30;
154A : 00;
154B : 28;
154C : 01;
154D : 28;
154E : 02;
154F : 20;
1550 : 02;
1551 : 80;
1552 : 03;
1553 : 40;
1554 : 00;
1555 : 40;
1556 : 01;
1557 : a2;
1558 : 00;
1559 : a9;
155A : 2f;
155B : 85;
155C : 00;
155D : a9;
155E : 02;
155F : 85;
1560 : 01;
1561 : a9;
1562 : 1e;
1563 : 85;
1564 : 02;
1565 : a9;
1566 : 00;
1567 : 85;
1568 : 03;
1569 : a9;
156A : 01;
156B : 85;
156C : 04;
156D : 20;
156E : 87;
156F : d5;
1570 : a5;
1571 : 00;
1572 : 18;
1573 : 69;
1574 : 04;
1575 : 85;
1576 : 00;
1577 : a5;
1578 : 02;
1579 : 18;
157A : 69;
157B : 04;
157C : 85;
157D : 02;
157E : 06;
157F : 04;
1580 : e8;
1581 : e8;
1582 : e0;
1583 : 08;
1584 : d0;
1585 : e7;
1586 : 60;
1587 : b4;
1588 : b8;
1589 : b9;
158A : 96;
158B : d5;
158C : 85;
158D : 10;
158E : b9;
158F : 97;
1590 : d5;
1591 : 85;
1592 : 11;
1593 : 6c;
1594 : 10;
1595 : 00;
1596 : d5;
1597 : d8;
1598 : 85;
1599 : d8;
159A : a1;
159B : d5;
159C : a1;
159D : d5;
159E : a0;
159F : d5;
15A0 : 60;
15A1 : 20;
15A2 : 21;
15A3 : d8;
15A4 : b5;
15A5 : b9;
15A6 : 0a;
15A7 : a8;
15A8 : b9;
15A9 : b5;
15AA : d5;
15AB : 85;
15AC : 10;
15AD : b9;
15AE : b6;
15AF : d5;
15B0 : 85;
15B1 : 11;
15B2 : 6c;
15B3 : 10;
15B4 : 00;
15B5 : d3;
15B6 : d5;
15B7 : d7;
15B8 : d5;
15B9 : bd;
15BA : d5;
15BB : c1;
15BC : d5;
15BD : a0;
15BE : 03;
15BF : d0;
15C0 : 02;
15C1 : a0;
15C2 : 01;
15C3 : b1;
15C4 : 02;
15C5 : 18;
15C6 : 75;
15C7 : c2;
15C8 : 91;
15C9 : 02;
15CA : a9;
15CB : 00;
15CC : 75;
15CD : c3;
15CE : 85;
15CF : cc;
15D0 : 4c;
15D1 : eb;
15D2 : d5;
15D3 : a0;
15D4 : 03;
15D5 : d0;
15D6 : 02;
15D7 : a0;
15D8 : 01;
15D9 : b1;
15DA : 02;
15DB : 38;
15DC : f5;
15DD : c2;
15DE : 91;
15DF : 02;
15E0 : a9;
15E1 : 00;
15E2 : b0;
15E3 : 02;
15E4 : a9;
15E5 : 01;
15E6 : 18;
15E7 : 75;
15E8 : c3;
15E9 : 85;
15EA : cc;
15EB : c6;
15EC : cc;
15ED : 10;
15EE : 01;
15EF : 60;
15F0 : b5;
15F1 : b9;
15F2 : 0a;
15F3 : a8;
15F4 : b9;
15F5 : 01;
15F6 : d6;
15F7 : 85;
15F8 : 10;
15F9 : b9;
15FA : 02;
15FB : d6;
15FC : 85;
15FD : 11;
15FE : 6c;
15FF : 10;
1600 : 00;
1601 : 09;
1602 : d6;
1603 : 1d;
1604 : d6;
1605 : 0f;
1606 : d6;
1607 : 17;
1608 : d6;
1609 : a9;
160A : ff;
160B : 85;
160C : 05;
160D : d0;
160E : 04;
160F : a9;
1610 : 01;
1611 : 85;
1612 : 05;
1613 : a0;
1614 : 02;
1615 : d0;
1616 : 0c;
1617 : a9;
1618 : 01;
1619 : 85;
161A : 05;
161B : d0;
161C : 04;
161D : a9;
161E : ff;
161F : 85;
1620 : 05;
1621 : a0;
1622 : 00;
1623 : b1;
1624 : 02;
1625 : 18;
1626 : 65;
1627 : 05;
1628 : 91;
1629 : 02;
162A : a0;
162B : 00;
162C : b1;
162D : 02;
162E : c9;
162F : 0a;
1630 : d0;
1631 : 06;
1632 : a9;
1633 : bf;
1634 : 91;
1635 : 02;
1636 : d0;
1637 : 12;
1638 : c9;
1639 : c0;
163A : d0;
163B : 06;
163C : a9;
163D : 0b;
163E : 91;
163F : 02;
1640 : d0;
1641 : 08;
1642 : c9;
1643 : 18;
1644 : 90;
1645 : 04;
1646 : c9;
1647 : a9;
1648 : 90;
1649 : 04;
164A : a9;
164B : 20;
164C : d0;
164D : 02;
164E : a9;
164F : 00;
1650 : 85;
1651 : 05;
1652 : 8a;
1653 : 4a;
1654 : a8;
1655 : b9;
1656 : 39;
1657 : 00;
1658 : 29;
1659 : df;
165A : 05;
165B : 05;
165C : 99;
165D : 39;
165E : 00;
165F : a0;
1660 : 00;
1661 : b1;
1662 : 02;
1663 : a0;
1664 : 02;
1665 : 11;
1666 : 02;
1667 : 29;
1668 : 07;
1669 : f0;
166A : 03;
166B : 4c;
166C : eb;
166D : d5;
166E : a0;
166F : 00;
1670 : b1;
1671 : 02;
1672 : c9;
1673 : 60;
1674 : d0;
1675 : 25;
1676 : a0;
1677 : 02;
1678 : b1;
1679 : 02;
167A : c9;
167B : 70;
167C : d0;
167D : 1d;
167E : a9;
167F : 02;
1680 : 95;
1681 : b8;
1682 : a9;
1683 : 00;
1684 : 18;
1685 : e5;
1686 : 04;
1687 : 25;
1688 : 88;
1689 : 85;
168A : 88;
168B : 8a;
168C : 4a;
168D : a8;
168E : 85;
168F : 05;
1690 : b9;
1691 : 39;
1692 : 00;
1693 : 29;
1694 : fc;
1695 : 05;
1696 : 05;
1697 : 99;
1698 : 39;
1699 : 00;
169A : 60;
169B : b5;
169C : b8;
169D : c9;
169E : 06;
169F : d0;
16A0 : 0b;
16A1 : a9;
16A2 : 60;
16A3 : 85;
16A4 : cd;
16A5 : a9;
16A6 : 6f;
16A7 : 85;
16A8 : ce;
16A9 : 4c;
16AA : 78;
16AB : d7;
16AC : a5;
16AD : 04;
16AE : 25;
16AF : 88;
16B0 : d0;
16B1 : 58;
16B2 : a5;
16B3 : 04;
16B4 : 25;
16B5 : 87;
16B6 : d0;
16B7 : 17;
16B8 : 8a;
16B9 : a8;
16BA : b9;
16BB : c7;
16BC : d6;
16BD : 85;
16BE : cd;
16BF : b9;
16C0 : c8;
16C1 : d6;
16C2 : 85;
16C3 : ce;
16C4 : 4c;
16C5 : 78;
16C6 : d7;
16C7 : a8;
16C8 : 08;
16C9 : 18;
16CA : 08;
16CB : a8;
16CC : d0;
16CD : 18;
16CE : d0;
16CF : 8a;
16D0 : a8;
16D1 : b9;
16D2 : de;
16D3 : d6;
16D4 : 85;
16D5 : 10;
16D6 : b9;
16D7 : df;
16D8 : d6;
16D9 : 85;
16DA : 11;
16DB : 6c;
16DC : 10;
16DD : 00;
16DE : 3b;
16DF : d7;
16E0 : 45;
16E1 : d7;
16E2 : 64;
16E3 : d7;
16E4 : e6;
16E5 : d6;
16E6 : a5;
16E7 : 1a;
16E8 : 38;
16E9 : e5;
16EA : 2a;
16EB : b0;
16EC : 07;
16ED : 85;
16EE : 05;
16EF : a9;
16F0 : 00;
16F1 : 38;
16F2 : e5;
16F3 : 05;
16F4 : c9;
16F5 : 20;
16F6 : b0;
16F7 : 43;
16F8 : a5;
16F9 : 1c;
16FA : 38;
16FB : e5;
16FC : 2c;
16FD : b0;
16FE : 07;
16FF : 85;
1700 : 05;
1701 : a9;
1702 : 00;
1703 : 38;
1704 : e5;
1705 : 05;
1706 : c9;
1707 : 20;
1708 : b0;
1709 : 31;
170A : a5;
170B : 4b;
170C : 85;
170D : 05;
170E : a9;
170F : 05;
1710 : 85;
1711 : 06;
1712 : c6;
1713 : 06;
1714 : d0;
1715 : 04;
1716 : a9;
1717 : 02;
1718 : d0;
1719 : 1c;
171A : e6;
171B : 05;
171C : a5;
171D : 05;
171E : 29;
171F : 03;
1720 : a8;
1721 : b1;
1722 : 00;
1723 : 29;
1724 : f8;
1725 : d0;
1726 : eb;
1727 : a5;
1728 : 05;
1729 : 18;
172A : 69;
172B : 02;
172C : 29;
172D : 03;
172E : d5;
172F : b9;
1730 : f0;
1731 : e0;
1732 : a5;
1733 : 05;
1734 : 29;
1735 : 03;
1736 : 95;
1737 : b9;
1738 : 4c;
1739 : eb;
173A : d5;
173B : a5;
173C : 1a;
173D : 85;
173E : cd;
173F : a5;
1740 : 1c;
1741 : 85;
1742 : ce;
1743 : d0;
1744 : 33;
1745 : a5;
1746 : 51;
1747 : 0a;
1748 : a8;
1749 : b9;
174A : 5c;
174B : d7;
174C : 18;
174D : 65;
174E : 1a;
174F : 85;
1750 : cd;
1751 : b9;
1752 : 5d;
1753 : d7;
1754 : 18;
1755 : 65;
1756 : 1c;
1757 : 85;
1758 : ce;
1759 : 4c;
175A : 78;
175B : d7;
175C : 00;
175D : e8;
175E : e8;
175F : 00;
1760 : 00;
1761 : 18;
1762 : 18;
1763 : 00;
1764 : a5;
1765 : 1a;
1766 : 38;
1767 : e5;
1768 : 1e;
1769 : 18;
176A : 65;
176B : 1a;
176C : 85;
176D : cd;
176E : a5;
176F : 1c;
1770 : 38;
1771 : e5;
1772 : 20;
1773 : 18;
1774 : 65;
1775 : 1c;
1776 : 85;
1777 : ce;
1778 : b5;
1779 : b8;
177A : 38;
177B : e9;
177C : 04;
177D : a8;
177E : b9;
177F : 81;
1780 : d8;
1781 : 85;
1782 : 0a;
1783 : b9;
1784 : 82;
1785 : d8;
1786 : 85;
1787 : 0b;
1788 : 20;
1789 : b1;
178A : e4;
178B : a5;
178C : 0c;
178D : c9;
178E : ff;
178F : d0;
1790 : 04;
1791 : a9;
1792 : 02;
1793 : d0;
1794 : 08;
1795 : a5;
1796 : 0d;
1797 : c9;
1798 : ff;
1799 : d0;
179A : 05;
179B : a5;
179C : 0c;
179D : 95;
179E : b9;
179F : 60;
17A0 : a0;
17A1 : 00;
17A2 : 84;
17A3 : 05;
17A4 : a5;
17A5 : cd;
17A6 : 38;
17A7 : f1;
17A8 : 02;
17A9 : b0;
17AA : 0f;
17AB : 85;
17AC : 08;
17AD : a9;
17AE : 00;
17AF : 38;
17B0 : e5;
17B1 : 08;
17B2 : e6;
17B3 : 05;
17B4 : e6;
17B5 : 05;
17B6 : e6;
17B7 : 05;
17B8 : e6;
17B9 : 05;
17BA : 85;
17BB : 06;
17BC : a5;
17BD : ce;
17BE : a0;
17BF : 02;
17C0 : 38;
17C1 : f1;
17C2 : 02;
17C3 : b0;
17C4 : 0b;
17C5 : 85;
17C6 : 08;
17C7 : a9;
17C8 : 00;
17C9 : 38;
17CA : e5;
17CB : 08;
17CC : e6;
17CD : 05;
17CE : e6;
17CF : 05;
17D0 : 85;
17D1 : 07;
17D2 : a5;
17D3 : 06;
17D4 : c5;
17D5 : 07;
17D6 : b0;
17D7 : 02;
17D8 : e6;
17D9 : 05;
17DA : a5;
17DB : 05;
17DC : 0a;
17DD : 85;
17DE : 05;
17DF : a9;
17E0 : 02;
17E1 : 85;
17E2 : 06;
17E3 : a4;
17E4 : 05;
17E5 : b9;
17E6 : 71;
17E7 : d8;
17E8 : a0;
17E9 : 00;
17EA : d9;
17EB : 0c;
17EC : 00;
17ED : f0;
17EE : ae;
17EF : c8;
17F0 : c0;
17F1 : 04;
17F2 : d0;
17F3 : f6;
17F4 : e6;
17F5 : 05;
17F6 : c6;
17F7 : 06;
17F8 : d0;
17F9 : e9;
17FA : b5;
17FB : b9;
17FC : 38;
17FD : e9;
17FE : 01;
17FF : 29;
1800 : 03;
1801 : a0;
1802 : 00;
1803 : d9;
1804 : 0c;
1805 : 00;
1806 : f0;
1807 : 95;
1808 : c8;
1809 : c0;
180A : 04;
180B : d0;
180C : f6;
180D : b5;
180E : b9;
180F : 18;
1810 : 69;
1811 : 01;
1812 : 29;
1813 : 03;
1814 : a0;
1815 : 00;
1816 : d9;
1817 : 0c;
1818 : 00;
1819 : f0;
181A : 82;
181B : c8;
181C : c0;
181D : 04;
181E : d0;
181F : f6;
1820 : 60;
1821 : b5;
1822 : b8;
1823 : c9;
1824 : 06;
1825 : f0;
1826 : 41;
1827 : a0;
1828 : 02;
1829 : b1;
182A : 02;
182B : c9;
182C : 70;
182D : d0;
182E : 15;
182F : a0;
1830 : 00;
1831 : b1;
1832 : 02;
1833 : c9;
1834 : 90;
1835 : b0;
1836 : 04;
1837 : c9;
1838 : 30;
1839 : b0;
183A : 09;
183B : a5;
183C : b3;
183D : 95;
183E : c2;
183F : a5;
1840 : b4;
1841 : 95;
1842 : c3;
1843 : 60;
1844 : a5;
1845 : 04;
1846 : 25;
1847 : 88;
1848 : d0;
1849 : 15;
184A : 8a;
184B : d0;
184C : 09;
184D : a5;
184E : ca;
184F : 85;
1850 : c2;
1851 : a5;
1852 : cb;
1853 : 85;
1854 : c3;
1855 : 60;
1856 : a5;
1857 : af;
1858 : 95;
1859 : c2;
185A : a5;
185B : b0;
185C : 95;
185D : c3;
185E : 60;
185F : a5;
1860 : b1;
1861 : 95;
1862 : c2;
1863 : a5;
1864 : b2;
1865 : 95;
1866 : c3;
1867 : 60;
1868 : a9;
1869 : 00;
186A : 95;
186B : c2;
186C : a9;
186D : 02;
186E : 95;
186F : c3;
1870 : 60;
1871 : 03;
1872 : 02;
1873 : 02;
1874 : 03;
1875 : 03;
1876 : 00;
1877 : 00;
1878 : 03;
1879 : 01;
187A : 02;
187B : 02;
187C : 01;
187D : 01;
187E : 00;
187F : 00;
1880 : 01;
1881 : 00;
1882 : 00;
1883 : 2c;
1884 : 08;
1885 : a9;
1886 : 00;
1887 : a8;
1888 : 85;
1889 : 05;
188A : a9;
188B : 80;
188C : 85;
188D : 06;
188E : b1;
188F : 02;
1890 : c9;
1891 : 60;
1892 : f0;
1893 : 1e;
1894 : 90;
1895 : 06;
1896 : c6;
1897 : 05;
1898 : a9;
1899 : 01;
189A : d0;
189B : 02;
189C : a9;
189D : 03;
189E : 95;
189F : b9;
18A0 : a0;
18A1 : 01;
18A2 : b1;
18A3 : 02;
18A4 : 18;
18A5 : 65;
18A6 : 06;
18A7 : 91;
18A8 : 02;
18A9 : a0;
18AA : 00;
18AB : b1;
18AC : 02;
18AD : 65;
18AE : 05;
18AF : 91;
18B0 : 02;
18B1 : 60;
18B2 : a9;
18B3 : 00;
18B4 : 95;
18B5 : b9;
18B6 : a0;
18B7 : 03;
18B8 : b1;
18B9 : 02;
18BA : 38;
18BB : e9;
18BC : 80;
18BD : 91;
18BE : 02;
18BF : a0;
18C0 : 02;
18C1 : b1;
18C2 : 02;
18C3 : e9;
18C4 : 00;
18C5 : 91;
18C6 : 02;
18C7 : c9;
18C8 : 58;
18C9 : f0;
18CA : 01;
18CB : 60;
18CC : a9;
18CD : 01;
18CE : 95;
18CF : b9;
18D0 : a9;
18D1 : 04;
18D2 : 95;
18D3 : b8;
18D4 : 60;
18D5 : a9;
18D6 : 00;
18D7 : 85;
18D8 : 05;
18D9 : a9;
18DA : 80;
18DB : 85;
18DC : 06;
18DD : b4;
18DE : b9;
18DF : b9;
18E0 : ec;
18E1 : d8;
18E2 : 85;
18E3 : 10;
18E4 : b9;
18E5 : ed;
18E6 : d8;
18E7 : 85;
18E8 : 11;
18E9 : 6c;
18EA : 10;
18EB : 00;
18EC : f0;
18ED : d8;
18EE : f2;
18EF : d8;
18F0 : c6;
18F1 : 05;
18F2 : a0;
18F3 : 03;
18F4 : b1;
18F5 : 02;
18F6 : 18;
18F7 : 65;
18F8 : 06;
18F9 : 91;
18FA : 02;
18FB : a0;
18FC : 02;
18FD : b1;
18FE : 02;
18FF : 65;
1900 : 05;
1901 : 91;
1902 : 02;
1903 : c9;
1904 : 69;
1905 : b0;
1906 : 04;
1907 : a9;
1908 : 02;
1909 : d0;
190A : 06;
190B : c9;
190C : 70;
190D : 90;
190E : 04;
190F : a9;
1910 : 00;
1911 : 95;
1912 : b9;
1913 : 60;
1914 : a2;
1915 : 00;
1916 : a9;
1917 : 2f;
1918 : 85;
1919 : 00;
191A : a9;
191B : 02;
191C : 85;
191D : 01;
191E : a9;
191F : 1e;
1920 : 85;
1921 : 02;
1922 : a9;
1923 : 00;
1924 : 85;
1925 : 03;
1926 : a9;
1927 : 01;
1928 : 85;
1929 : 04;
192A : 20;
192B : 44;
192C : d9;
192D : a5;
192E : 00;
192F : 18;
1930 : 69;
1931 : 04;
1932 : 85;
1933 : 00;
1934 : a5;
1935 : 02;
1936 : 18;
1937 : 69;
1938 : 04;
1939 : 85;
193A : 02;
193B : 06;
193C : 04;
193D : e8;
193E : e8;
193F : e0;
1940 : 08;
1941 : d0;
1942 : e7;
1943 : 60;
1944 : b4;
1945 : b8;
1946 : b9;
1947 : 53;
1948 : d9;
1949 : 85;
194A : 10;
194B : b9;
194C : 54;
194D : d9;
194E : 85;
194F : 11;
1950 : 6c;
1951 : 10;
1952 : 00;
1953 : 5d;
1954 : d9;
1955 : 5d;
1956 : d9;
1957 : 5d;
1958 : d9;
1959 : a1;
195A : d5;
195B : 5d;
195C : d9;
195D : 60;
195E : a2;
195F : 00;
1960 : 86;
1961 : 00;
1962 : b5;
1963 : b8;
1964 : c9;
1965 : 06;
1966 : d0;
1967 : 04;
1968 : 8d;
1969 : 08;
196A : 06;
196B : 60;
196C : e8;
196D : e8;
196E : e0;
196F : 08;
1970 : d0;
1971 : f0;
1972 : a5;
1973 : 88;
1974 : f0;
1975 : 04;
1976 : 8d;
1977 : 09;
1978 : 06;
1979 : 60;
197A : a0;
197B : 00;
197C : a5;
197D : 6a;
197E : c9;
197F : 88;
1980 : b0;
1981 : 06;
1982 : c8;
1983 : c9;
1984 : 42;
1985 : b0;
1986 : 01;
1987 : c8;
1988 : a9;
1989 : 01;
198A : 99;
198B : 0a;
198C : 06;
198D : 60;
198E : a5;
198F : 51;
1990 : 0a;
1991 : 18;
1992 : 69;
1993 : 02;
1994 : 85;
1995 : 00;
1996 : a5;
1997 : 1a;
1998 : 05;
1999 : 1c;
199A : 29;
199B : 07;
199C : d0;
199D : 10;
199E : a4;
199F : 51;
19A0 : b9;
19A1 : 2b;
19A2 : 02;
19A3 : 29;
19A4 : f0;
19A5 : f0;
19A6 : 07;
19A7 : a5;
19A8 : b7;
19A9 : 29;
19AA : 03;
19AB : 4c;
19AC : b2;
19AD : d9;
19AE : e6;
19AF : b7;
19B0 : a5;
19B1 : b7;
19B2 : 29;
19B3 : 07;
19B4 : c9;
19B5 : 06;
19B6 : 90;
19B7 : 04;
19B8 : a9;
19B9 : 01;
19BA : d0;
19BB : 07;
19BC : a8;
19BD : b9;
19BE : c6;
19BF : d9;
19C0 : 18;
19C1 : 65;
19C2 : 00;
19C3 : 85;
19C4 : 32;
19C5 : 60;
19C6 : 00;
19C7 : 00;
19C8 : 00;
19C9 : 01;
19CA : 01;
19CB : 00;
19CC : a9;
19CD : 00;
19CE : aa;
19CF : 85;
19D0 : 00;
19D1 : a5;
19D2 : 4b;
19D3 : 29;
19D4 : 08;
19D5 : f0;
19D6 : 04;
19D7 : a9;
19D8 : 01;
19D9 : 85;
19DA : 00;
19DB : a9;
19DC : 01;
19DD : 85;
19DE : 01;
19DF : 20;
19E0 : eb;
19E1 : d9;
19E2 : 06;
19E3 : 01;
19E4 : e8;
19E5 : e8;
19E6 : e0;
19E7 : 08;
19E8 : d0;
19E9 : f5;
19EA : 60;
19EB : b4;
19EC : b8;
19ED : b9;
19EE : fa;
19EF : d9;
19F0 : 85;
19F1 : 10;
19F2 : b9;
19F3 : fb;
19F4 : d9;
19F5 : 85;
19F6 : 11;
19F7 : 6c;
19F8 : 10;
19F9 : 00;
19FA : 21;
19FB : da;
19FC : 21;
19FD : da;
19FE : 21;
19FF : da;
1A00 : 2d;
1A01 : da;
1A02 : ea;
1A03 : d9;
1A04 : b5;
1A05 : b9;
1A06 : 85;
1A07 : 03;
1A08 : a9;
1A09 : 0a;
1A0A : c6;
1A0B : 03;
1A0C : 30;
1A0D : 05;
1A0E : 18;
1A0F : 69;
1A10 : 02;
1A11 : d0;
1A12 : f7;
1A13 : 18;
1A14 : 65;
1A15 : 00;
1A16 : 85;
1A17 : 02;
1A18 : 8a;
1A19 : 4a;
1A1A : a8;
1A1B : a5;
1A1C : 02;
1A1D : 99;
1A1E : 33;
1A1F : 00;
1A20 : 60;
1A21 : a5;
1A22 : 01;
1A23 : 25;
1A24 : 88;
1A25 : f0;
1A26 : dd;
1A27 : a9;
1A28 : 1e;
1A29 : 85;
1A2A : 02;
1A2B : d0;
1A2C : e6;
1A2D : b5;
1A2E : b9;
1A2F : 85;
1A30 : 03;
1A31 : a9;
1A32 : 20;
1A33 : c6;
1A34 : 03;
1A35 : 30;
1A36 : 05;
1A37 : 18;
1A38 : 69;
1A39 : 01;
1A3A : d0;
1A3B : f7;
1A3C : 85;
1A3D : 02;
1A3E : 30;
1A3F : d8;
1A40 : a2;
1A41 : 23;
1A42 : b5;
1A43 : 1a;
1A44 : 9d;
1A45 : 74;
1A46 : 02;
1A47 : ca;
1A48 : 10;
1A49 : f8;
1A4A : a9;
1A4B : 84;
1A4C : 85;
1A4D : 00;
1A4E : a9;
1A4F : 02;
1A50 : 85;
1A51 : 01;
1A52 : a9;
1A53 : 08;
1A54 : 85;
1A55 : 03;
1A56 : a9;
1A57 : 03;
1A58 : 85;
1A59 : 02;
1A5A : a5;
1A5B : 03;
1A5C : 25;
1A5D : 88;
1A5E : d0;
1A5F : 7b;
1A60 : a0;
1A61 : 00;
1A62 : ad;
1A63 : 74;
1A64 : 02;
1A65 : d1;
1A66 : 00;
1A67 : b0;
1A68 : 08;
1A69 : b1;
1A6A : 00;
1A6B : 38;
1A6C : ed;
1A6D : 74;
1A6E : 02;
1A6F : b0;
1A70 : 02;
1A71 : f1;
1A72 : 00;
1A73 : c9;
1A74 : 19;
1A75 : b0;
1A76 : 64;
1A77 : 85;
1A78 : 04;
1A79 : a0;
1A7A : 02;
1A7B : ad;
1A7C : 76;
1A7D : 02;
1A7E : d1;
1A7F : 00;
1A80 : b0;
1A81 : 08;
1A82 : b1;
1A83 : 00;
1A84 : 38;
1A85 : ed;
1A86 : 76;
1A87 : 02;
1A88 : b0;
1A89 : 02;
1A8A : f1;
1A8B : 00;
1A8C : c9;
1A8D : 19;
1A8E : b0;
1A8F : 4b;
1A90 : 65;
1A91 : 04;
1A92 : c9;
1A93 : 10;
1A94 : b0;
1A95 : 45;
1A96 : ad;
1A97 : 74;
1A98 : 02;
1A99 : 85;
1A9A : 03;
1A9B : ad;
1A9C : 76;
1A9D : 02;
1A9E : 85;
1A9F : 04;
1AA0 : ad;
1AA1 : 8c;
1AA2 : 02;
1AA3 : 85;
1AA4 : 05;
1AA5 : ad;
1AA6 : 92;
1AA7 : 02;
1AA8 : 85;
1AA9 : 06;
1AAA : a0;
1AAB : 00;
1AAC : b1;
1AAD : 00;
1AAE : 8d;
1AAF : 74;
1AB0 : 02;
1AB1 : a5;
1AB2 : 03;
1AB3 : 91;
1AB4 : 00;
1AB5 : a0;
1AB6 : 02;
1AB7 : b1;
1AB8 : 00;
1AB9 : 8d;
1ABA : 76;
1ABB : 02;
1ABC : a5;
1ABD : 04;
1ABE : 91;
1ABF : 00;
1AC0 : a6;
1AC1 : 02;
1AC2 : bd;
1AC3 : 8d;
1AC4 : 02;
1AC5 : 8d;
1AC6 : 8c;
1AC7 : 02;
1AC8 : a5;
1AC9 : 05;
1ACA : 9d;
1ACB : 8d;
1ACC : 02;
1ACD : bd;
1ACE : 93;
1ACF : 02;
1AD0 : 8d;
1AD1 : 92;
1AD2 : 02;
1AD3 : a5;
1AD4 : 06;
1AD5 : 9d;
1AD6 : 93;
1AD7 : 02;
1AD8 : 4c;
1AD9 : eb;
1ADA : da;
1ADB : a5;
1ADC : 00;
1ADD : 38;
1ADE : e9;
1ADF : 04;
1AE0 : 85;
1AE1 : 00;
1AE2 : 46;
1AE3 : 03;
1AE4 : c6;
1AE5 : 02;
1AE6 : 30;
1AE7 : 03;
1AE8 : 4c;
1AE9 : 5a;
1AEA : da;
1AEB : 20;
1AEC : da;
1AED : e1;
1AEE : 4c;
1AEF : f1;
1AF0 : da;
1AF1 : a9;
1AF2 : 74;
1AF3 : 85;
1AF4 : 00;
1AF5 : a9;
1AF6 : 02;
1AF7 : 85;
1AF8 : 01;
1AF9 : a9;
1AFA : 00;
1AFB : 85;
1AFC : 02;
1AFD : a9;
1AFE : 07;
1AFF : 85;
1B00 : 03;
1B01 : a9;
1B02 : 00;
1B03 : 85;
1B04 : 04;
1B05 : a9;
1B06 : 00;
1B07 : 85;
1B08 : 05;
1B09 : aa;
1B0A : a0;
1B0B : 02;
1B0C : b1;
1B0D : 00;
1B0E : d0;
1B0F : 04;
1B10 : a9;
1B11 : ff;
1B12 : d0;
1B13 : 04;
1B14 : 18;
1B15 : 7d;
1B16 : 56;
1B17 : de;
1B18 : a0;
1B19 : 00;
1B1A : 91;
1B1B : 02;
1B1C : a4;
1B1D : 04;
1B1E : b9;
1B1F : 8c;
1B20 : 02;
1B21 : 0a;
1B22 : 2a;
1B23 : 2a;
1B24 : 29;
1B25 : 03;
1B26 : f0;
1B27 : 29;
1B28 : c9;
1B29 : 02;
1B2A : f0;
1B2B : 6b;
1B2C : 90;
1B2D : 46;
1B2E : b9;
1B2F : 8c;
1B30 : 02;
1B31 : 0a;
1B32 : 0a;
1B33 : 18;
1B34 : 65;
1B35 : 05;
1B36 : a8;
1B37 : 85;
1B38 : 06;
1B39 : b9;
1B3A : 22;
1B3B : dd;
1B3C : a0;
1B3D : 01;
1B3E : 91;
1B3F : 02;
1B40 : a4;
1B41 : 04;
1B42 : b9;
1B43 : 92;
1B44 : 02;
1B45 : a4;
1B46 : 06;
1B47 : 19;
1B48 : 56;
1B49 : de;
1B4A : a0;
1B4B : 02;
1B4C : 91;
1B4D : 02;
1B4E : 4c;
1B4F : b7;
1B50 : db;
1B51 : b9;
1B52 : 8c;
1B53 : 02;
1B54 : 0a;
1B55 : 0a;
1B56 : 18;
1B57 : 65;
1B58 : 05;
1B59 : a8;
1B5A : 85;
1B5B : 06;
1B5C : b9;
1B5D : ee;
1B5E : db;
1B5F : a0;
1B60 : 01;
1B61 : 91;
1B62 : 02;
1B63 : a4;
1B64 : 04;
1B65 : b9;
1B66 : 92;
1B67 : 02;
1B68 : a4;
1B69 : 06;
1B6A : 19;
1B6B : 22;
1B6C : dd;
1B6D : a0;
1B6E : 02;
1B6F : 91;
1B70 : 02;
1B71 : 4c;
1B72 : b7;
1B73 : db;
1B74 : b9;
1B75 : 8c;
1B76 : 02;
1B77 : 0a;
1B78 : 0a;
1B79 : 18;
1B7A : 65;
1B7B : 05;
1B7C : a8;
1B7D : 85;
1B7E : 06;
1B7F : b9;
1B80 : ee;
1B81 : dc;
1B82 : a0;
1B83 : 01;
1B84 : 91;
1B85 : 02;
1B86 : a4;
1B87 : 04;
1B88 : b9;
1B89 : 92;
1B8A : 02;
1B8B : a4;
1B8C : 06;
1B8D : 19;
1B8E : 22;
1B8F : de;
1B90 : a0;
1B91 : 02;
1B92 : 91;
1B93 : 02;
1B94 : 4c;
1B95 : b7;
1B96 : db;
1B97 : b9;
1B98 : 8c;
1B99 : 02;
1B9A : 0a;
1B9B : 0a;
1B9C : 18;
1B9D : 65;
1B9E : 05;
1B9F : a8;
1BA0 : 85;
1BA1 : 06;
1BA2 : b9;
1BA3 : 22;
1BA4 : dd;
1BA5 : a0;
1BA6 : 01;
1BA7 : 91;
1BA8 : 02;
1BA9 : a4;
1BAA : 04;
1BAB : b9;
1BAC : 92;
1BAD : 02;
1BAE : a4;
1BAF : 06;
1BB0 : 19;
1BB1 : 56;
1BB2 : de;
1BB3 : a0;
1BB4 : 02;
1BB5 : 91;
1BB6 : 02;
1BB7 : a0;
1BB8 : 00;
1BB9 : b1;
1BBA : 00;
1BBB : d0;
1BBC : 04;
1BBD : a9;
1BBE : ff;
1BBF : d0;
1BC0 : 04;
1BC1 : 18;
1BC2 : 7d;
1BC3 : 57;
1BC4 : de;
1BC5 : a0;
1BC6 : 03;
1BC7 : 91;
1BC8 : 02;
1BC9 : a5;
1BCA : 02;
1BCB : 18;
1BCC : 69;
1BCD : 04;
1BCE : 85;
1BCF : 02;
1BD0 : e6;
1BD1 : 05;
1BD2 : e8;
1BD3 : e8;
1BD4 : e0;
1BD5 : 08;
1BD6 : f0;
1BD7 : 03;
1BD8 : 4c;
1BD9 : 0a;
1BDA : db;
1BDB : a5;
1BDC : 00;
1BDD : 18;
1BDE : 69;
1BDF : 04;
1BE0 : 85;
1BE1 : 00;
1BE2 : e6;
1BE3 : 04;
1BE4 : a5;
1BE5 : 04;
1BE6 : c9;
1BE7 : 06;
1BE8 : f0;
1BE9 : 03;
1BEA : 4c;
1BEB : 05;
1BEC : db;
1BED : 60;
1BEE : 4c;
1BEF : 4c;
1BF0 : 4c;
1BF1 : 4c;
1BF2 : 00;
1BF3 : 00;
1BF4 : 00;
1BF5 : 00;
1BF6 : 04;
1BF7 : 04;
1BF8 : 03;
1BF9 : 03;
1BFA : 08;
1BFB : 08;
1BFC : 07;
1BFD : 07;
1BFE : 02;
1BFF : 01;
1C00 : 02;
1C01 : 01;
1C02 : 06;
1C03 : 05;
1C04 : 06;
1C05 : 05;
1C06 : 03;
1C07 : 03;
1C08 : 04;
1C09 : 04;
1C0A : 07;
1C0B : 07;
1C0C : 08;
1C0D : 08;
1C0E : 01;
1C0F : 02;
1C10 : 01;
1C11 : 02;
1C12 : 05;
1C13 : 06;
1C14 : 05;
1C15 : 06;
1C16 : 18;
1C17 : 18;
1C18 : 19;
1C19 : 19;
1C1A : 18;
1C1B : 18;
1C1C : 1a;
1C1D : 1a;
1C1E : 1b;
1C1F : 1c;
1C20 : 1d;
1C21 : 1f;
1C22 : 1b;
1C23 : 1c;
1C24 : 1e;
1C25 : 20;
1C26 : 21;
1C27 : 21;
1C28 : 22;
1C29 : 22;
1C2A : 21;
1C2B : 21;
1C2C : 23;
1C2D : 23;
1C2E : 1c;
1C2F : 1b;
1C30 : 1f;
1C31 : 1d;
1C32 : 1c;
1C33 : 1b;
1C34 : 20;
1C35 : 1e;
1C36 : 00;
1C37 : 00;
1C38 : 00;
1C39 : 00;
1C3A : 09;
1C3B : 09;
1C3C : 0a;
1C3D : 0a;
1C3E : 0b;
1C3F : 0b;
1C40 : 0c;
1C41 : 0c;
1C42 : 4c;
1C43 : 4c;
1C44 : 0d;
1C45 : 0d;
1C46 : 4c;
1C47 : 4c;
1C48 : 0e;
1C49 : 0e;
1C4A : 4c;
1C4B : 4c;
1C4C : 0f;
1C4D : 0f;
1C4E : 4c;
1C4F : 4c;
1C50 : 10;
1C51 : 10;
1C52 : 4c;
1C53 : 4c;
1C54 : 11;
1C55 : 11;
1C56 : 4c;
1C57 : 4c;
1C58 : 12;
1C59 : 12;
1C5A : 4c;
1C5B : 4c;
1C5C : 13;
1C5D : 13;
1C5E : 14;
1C5F : 15;
1C60 : 16;
1C61 : 17;
[...]
78E7 : ff;
78E8 : ff;
78E9 : ff;
78EA : ff;
78EB : ff;
78EC : ff;
78ED : ff;
78EE : ff;
78EF : ff;
78F0 : ff;
78F1 : ff;
78F2 : ff;
78F3 : ff;
78F4 : ff;
78F5 : ff;
78F6 : ff;
78F7 : ff;
78F8 : ff;
78F9 : ff;
78FA : ff;
78FB : ff;
78FC : ff;
78FD : ff;
78FE : ff;
78FF : ff;
7900 : ff;
7901 : ff;
7902 : ff;
7903 : ff;
7904 : ff;
7905 : ff;
7906 : ff;
7907 : ff;
7908 : ff;
7909 : ff;
790A : ff;
790B : ff;
790C : ff;
790D : ff;
790E : ff;
790F : ff;
7910 : ff;
7911 : ff;
7912 : ff;
7913 : ff;
7914 : ff;
7915 : ff;
7916 : ff;
7917 : ff;
7918 : ff;
7919 : ff;
791A : ff;
791B : ff;
791C : ff;
791D : ff;
791E : ff;
791F : ff;
7920 : ff;
7921 : ff;
7922 : ff;
7923 : ff;
7924 : ff;
7925 : ff;
7926 : ff;
7927 : ff;
7928 : ff;
7929 : ff;
792A : ff;
792B : ff;
792C : ff;
792D : ff;
792E : ff;
792F : ff;
7930 : ff;
7931 : ff;
7932 : ff;
7933 : ff;
7934 : ff;
7935 : ff;
7936 : ff;
7937 : ff;
7938 : ff;
7939 : ff;
793A : ff;
793B : ff;
793C : ff;
793D : ff;
793E : ff;
793F : ff;
7940 : ff;
7941 : ff;
7942 : ff;
7943 : ff;
7944 : ff;
7945 : ff;
7946 : ff;
7947 : ff;
7948 : ff;
7949 : ff;
794A : ff;
794B : ff;
794C : ff;
794D : ff;
794E : ff;
794F : ff;
7950 : ff;
7951 : ff;
7952 : ff;
7953 : ff;
7954 : ff;
7955 : ff;
7956 : ff;
7957 : ff;
7958 : ff;
7959 : ff;
795A : ff;
795B : ff;
795C : ff;
795D : ff;
795E : ff;
795F : ff;
7960 : ff;
7961 : ff;
7962 : ff;
7963 : ff;
7964 : ff;
7965 : ff;
7966 : ff;
7967 : ff;
7968 : ff;
7969 : ff;
796A : ff;
796B : ff;
796C : ff;
796D : ff;
796E : ff;
796F : ff;
7970 : ff;
7971 : ff;
7972 : ff;
7973 : ff;
7974 : ff;
7975 : ff;
7976 : ff;
7977 : ff;
7978 : ff;
7979 : ff;
797A : ff;
797B : ff;
797C : ff;
797D : ff;
797E : ff;
797F : ff;
7980 : ff;
7981 : ff;
7982 : ff;
7983 : ff;
7984 : ff;
7985 : ff;
7986 : ff;
7987 : ff;
7988 : ff;
7989 : ff;
798A : ff;
798B : ff;
798C : ff;
798D : ff;
798E : ff;
798F : ff;
7990 : ff;
7991 : ff;
7992 : ff;
7993 : ff;
7994 : ff;
7995 : ff;
7996 : ff;
7997 : ff;
7998 : ff;
7999 : ff;
799A : ff;
799B : ff;
799C : ff;
799D : ff;
799E : ff;
799F : ff;
79A0 : ff;
79A1 : ff;
79A2 : ff;
79A3 : ff;
79A4 : ff;
79A5 : ff;
79A6 : ff;
79A7 : ff;
79A8 : ff;
79A9 : ff;
79AA : ff;
79AB : ff;
79AC : ff;
79AD : ff;
79AE : ff;
79AF : ff;
79B0 : ff;
79B1 : ff;
79B2 : ff;
79B3 : ff;
79B4 : ff;
79B5 : ff;
79B6 : ff;
79B7 : ff;
79B8 : ff;
79B9 : ff;
79BA : ff;
79BB : ff;
79BC : ff;
79BD : ff;
79BE : ff;
79BF : ff;
79C0 : ff;
79C1 : ff;
79C2 : ff;
79C3 : ff;
79C4 : ff;
79C5 : ff;
79C6 : ff;
79C7 : ff;
79C8 : ff;
79C9 : ff;
79CA : ff;
79CB : ff;
79CC : ff;
79CD : ff;
79CE : ff;
79CF : ff;
79D0 : ff;
79D1 : ff;
79D2 : ff;
79D3 : ff;
79D4 : ff;
79D5 : ff;
79D6 : ff;
79D7 : ff;
79D8 : ff;
79D9 : ff;
79DA : ff;
79DB : ff;
79DC : ff;
79DD : ff;
79DE : ff;
79DF : ff;
79E0 : ff;
79E1 : ff;
79E2 : ff;
79E3 : ff;
79E4 : ff;
79E5 : ff;
79E6 : ff;
79E7 : ff;
79E8 : ff;
79E9 : ff;
79EA : ff;
79EB : ff;
79EC : ff;
79ED : ff;
79EE : ff;
79EF : ff;
79F0 : ff;
79F1 : ff;
79F2 : ff;
79F3 : ff;
79F4 : ff;
79F5 : ff;
79F6 : ff;
79F7 : ff;
79F8 : ff;
79F9 : ff;
79FA : ff;
79FB : ff;
79FC : ff;
79FD : ff;
79FE : ff;
79FF : ff;
7A00 : ff;
7A01 : ff;
7A02 : ff;
7A03 : ff;
7A04 : ff;
7A05 : ff;
7A06 : ff;
7A07 : ff;
7A08 : ff;
7A09 : ff;
7A0A : ff;
7A0B : ff;
7A0C : ff;
7A0D : ff;
7A0E : ff;
7A0F : ff;
7A10 : ff;
7A11 : ff;
7A12 : ff;
7A13 : ff;
7A14 : ff;
7A15 : ff;
7A16 : ff;
7A17 : ff;
7A18 : ff;
7A19 : ff;
7A1A : ff;
7A1B : ff;
7A1C : ff;
7A1D : ff;
7A1E : ff;
7A1F : ff;
7A20 : ff;
7A21 : ff;
7A22 : ff;
7A23 : ff;
7A24 : ff;
7A25 : ff;
7A26 : ff;
7A27 : ff;
7A28 : ff;
7A29 : ff;
7A2A : ff;
7A2B : ff;
7A2C : ff;
7A2D : ff;
7A2E : ff;
7A2F : ff;
7A30 : ff;
7A31 : ff;
7A32 : ff;
7A33 : ff;
7A34 : ff;
7A35 : ff;
7A36 : ff;
7A37 : ff;
7A38 : ff;
7A39 : ff;
7A3A : ff;
7A3B : ff;
7A3C : ff;
7A3D : ff;
7A3E : ff;
7A3F : ff;
7A40 : ff;
7A41 : ff;
7A42 : ff;
7A43 : ff;
7A44 : ff;
7A45 : ff;
7A46 : ff;
7A47 : ff;
7A48 : ff;
7A49 : ff;
7A4A : ff;
7A4B : ff;
7A4C : ff;
7A4D : ff;
7A4E : ff;
7A4F : ff;
7A50 : ff;
7A51 : ff;
7A52 : ff;
7A53 : ff;
7A54 : ff;
7A55 : ff;
7A56 : ff;
7A57 : ff;
7A58 : ff;
7A59 : ff;
7A5A : ff;
7A5B : ff;
7A5C : ff;
7A5D : ff;
7A5E : ff;
7A5F : ff;
7A60 : ff;
7A61 : ff;
7A62 : ff;
7A63 : ff;
7A64 : ff;
7A65 : ff;
7A66 : ff;
7A67 : ff;
7A68 : ff;
7A69 : ff;
7A6A : ff;
7A6B : ff;
7A6C : ff;
7A6D : ff;
7A6E : ff;
7A6F : ff;
7A70 : ff;
7A71 : ff;
7A72 : ff;
7A73 : ff;
7A74 : ff;
7A75 : ff;
7A76 : ff;
7A77 : ff;
7A78 : ff;
7A79 : ff;
7A7A : ff;
7A7B : ff;
7A7C : ff;
7A7D : ff;
7A7E : ff;
7A7F : ff;
7A80 : ff;
7A81 : ff;
7A82 : ff;
7A83 : ff;
7A84 : ff;
7A85 : ff;
7A86 : ff;
7A87 : ff;
7A88 : ff;
7A89 : ff;
7A8A : ff;
7A8B : ff;
7A8C : ff;
7A8D : ff;
7A8E : ff;
7A8F : ff;
7A90 : ff;
7A91 : ff;
7A92 : ff;
7A93 : ff;
7A94 : ff;
7A95 : ff;
7A96 : ff;
7A97 : ff;
7A98 : ff;
7A99 : ff;
7A9A : ff;
7A9B : ff;
7A9C : ff;
7A9D : ff;
7A9E : ff;
7A9F : ff;
7AA0 : ff;
7AA1 : ff;
7AA2 : ff;
7AA3 : ff;
7AA4 : ff;
7AA5 : ff;
7AA6 : ff;
7AA7 : ff;
7AA8 : ff;
7AA9 : ff;
7AAA : ff;
7AAB : ff;
7AAC : ff;
7AAD : ff;
7AAE : ff;
7AAF : ff;
7AB0 : ff;
7AB1 : ff;
7AB2 : ff;
7AB3 : ff;
7AB4 : ff;
7AB5 : ff;
7AB6 : ff;
7AB7 : ff;
7AB8 : ff;
7AB9 : ff;
7ABA : ff;
7ABB : ff;
7ABC : ff;
7ABD : ff;
7ABE : ff;
7ABF : ff;
7AC0 : ff;
7AC1 : ff;
7AC2 : ff;
7AC3 : ff;
7AC4 : ff;
7AC5 : ff;
7AC6 : ff;
7AC7 : ff;
7AC8 : ff;
7AC9 : ff;
7ACA : ff;
7ACB : ff;
7ACC : ff;
7ACD : ff;
7ACE : ff;
7ACF : ff;
7AD0 : ff;
7AD1 : ff;
7AD2 : ff;
7AD3 : ff;
7AD4 : ff;
7AD5 : ff;
7AD6 : ff;
7AD7 : ff;
7AD8 : ff;
7AD9 : ff;
7ADA : ff;
7ADB : ff;
7ADC : ff;
7ADD : ff;
7ADE : ff;
7ADF : ff;
7AE0 : ff;
7AE1 : ff;
7AE2 : ff;
7AE3 : ff;
7AE4 : ff;
7AE5 : ff;
7AE6 : ff;
7AE7 : ff;
7AE8 : ff;
7AE9 : ff;
7AEA : ff;
7AEB : ff;
7AEC : ff;
7AED : ff;
7AEE : ff;
7AEF : ff;
7AF0 : ff;
7AF1 : ff;
7AF2 : ff;
7AF3 : ff;
7AF4 : ff;
7AF5 : ff;
7AF6 : ff;
7AF7 : ff;
7AF8 : ff;
7AF9 : ff;
7AFA : ff;
7AFB : ff;
7AFC : ff;
7AFD : ff;
7AFE : ff;
7AFF : ff;
7B00 : ff;
7B01 : ff;
7B02 : ff;
7B03 : ff;
7B04 : ff;
7B05 : ff;
7B06 : ff;
7B07 : ff;
7B08 : ff;
7B09 : ff;
7B0A : ff;
7B0B : ff;
7B0C : ff;
7B0D : ff;
7B0E : ff;
7B0F : ff;
7B10 : ff;
7B11 : ff;
7B12 : ff;
7B13 : ff;
7B14 : ff;
7B15 : ff;
7B16 : ff;
7B17 : ff;
7B18 : ff;
7B19 : ff;
7B1A : ff;
7B1B : ff;
7B1C : ff;
7B1D : ff;
7B1E : ff;
7B1F : ff;
7B20 : ff;
7B21 : ff;
7B22 : ff;
7B23 : ff;
7B24 : ff;
7B25 : ff;
7B26 : ff;
7B27 : ff;
7B28 : ff;
7B29 : ff;
7B2A : ff;
7B2B : ff;
7B2C : ff;
7B2D : ff;
7B2E : ff;
7B2F : ff;
7B30 : ff;
7B31 : ff;
7B32 : ff;
7B33 : ff;
7B34 : ff;
7B35 : ff;
7B36 : ff;
7B37 : ff;
7B38 : ff;
7B39 : ff;
7B3A : ff;
7B3B : ff;
7B3C : ff;
7B3D : ff;
7B3E : ff;
7B3F : ff;
7B40 : ff;
7B41 : ff;
7B42 : ff;
7B43 : ff;
7B44 : ff;
7B45 : ff;
7B46 : ff;
7B47 : ff;
7B48 : ff;
7B49 : ff;
7B4A : ff;
7B4B : ff;
7B4C : ff;
7B4D : ff;
7B4E : ff;
7B4F : ff;
7B50 : ff;
7B51 : ff;
7B52 : ff;
7B53 : ff;
7B54 : ff;
7B55 : ff;
7B56 : ff;
7B57 : ff;
7B58 : ff;
7B59 : ff;
7B5A : ff;
7B5B : ff;
7B5C : ff;
7B5D : ff;
7B5E : ff;
7B5F : ff;
7B60 : ff;
7B61 : ff;
7B62 : ff;
7B63 : ff;
7B64 : ff;
7B65 : ff;
7B66 : ff;
7B67 : ff;
7B68 : ff;
7B69 : ff;
7B6A : ff;
7B6B : ff;
7B6C : ff;
7B6D : ff;
7B6E : ff;
7B6F : ff;
7B70 : ff;
7B71 : ff;
7B72 : ff;
7B73 : ff;
7B74 : ff;
7B75 : ff;
7B76 : ff;
7B77 : ff;
7B78 : ff;
7B79 : ff;
7B7A : ff;
7B7B : ff;
7B7C : ff;
7B7D : ff;
7B7E : ff;
7B7F : ff;
7B80 : ff;
7B81 : ff;
7B82 : ff;
7B83 : ff;
7B84 : ff;
7B85 : ff;
7B86 : ff;
7B87 : ff;
7B88 : ff;
7B89 : ff;
7B8A : ff;
7B8B : ff;
7B8C : ff;
7B8D : ff;
7B8E : ff;
7B8F : ff;
7B90 : ff;
7B91 : ff;
7B92 : ff;
7B93 : ff;
7B94 : ff;
7B95 : ff;
7B96 : ff;
7B97 : ff;
7B98 : ff;
7B99 : ff;
7B9A : ff;
7B9B : ff;
7B9C : ff;
7B9D : ff;
7B9E : ff;
7B9F : ff;
7BA0 : ff;
7BA1 : ff;
7BA2 : ff;
7BA3 : ff;
7BA4 : ff;
7BA5 : ff;
7BA6 : ff;
7BA7 : ff;
7BA8 : ff;
7BA9 : ff;
7BAA : ff;
7BAB : ff;
7BAC : ff;
7BAD : ff;
7BAE : ff;
7BAF : ff;
7BB0 : ff;
7BB1 : ff;
7BB2 : ff;
7BB3 : ff;
7BB4 : ff;
7BB5 : ff;
7BB6 : ff;
7BB7 : ff;
7BB8 : ff;
7BB9 : ff;
7BBA : ff;
7BBB : ff;
7BBC : ff;
7BBD : ff;
7BBE : ff;
7BBF : ff;
7BC0 : ff;
7BC1 : ff;
7BC2 : ff;
7BC3 : ff;
7BC4 : ff;
7BC5 : ff;
7BC6 : ff;
7BC7 : ff;
7BC8 : ff;
7BC9 : ff;
7BCA : ff;
7BCB : ff;
7BCC : ff;
7BCD : ff;
7BCE : ff;
7BCF : ff;
7BD0 : ff;
7BD1 : ff;
7BD2 : ff;
7BD3 : ff;
7BD4 : ff;
7BD5 : ff;
7BD6 : ff;
7BD7 : ff;
7BD8 : ff;
7BD9 : ff;
7BDA : ff;
7BDB : ff;
7BDC : ff;
7BDD : ff;
7BDE : ff;
7BDF : ff;
7BE0 : ff;
7BE1 : ff;
7BE2 : ff;
7BE3 : ff;
7BE4 : ff;
7BE5 : ff;
7BE6 : ff;
7BE7 : ff;
7BE8 : ff;
7BE9 : ff;
7BEA : ff;
7BEB : ff;
7BEC : ff;
7BED : ff;
7BEE : ff;
7BEF : ff;
7BF0 : ff;
7BF1 : ff;
7BF2 : ff;
7BF3 : ff;
7BF4 : ff;
7BF5 : ff;
7BF6 : ff;
7BF7 : ff;
7BF8 : ff;
7BF9 : ff;
7BFA : ff;
7BFB : ff;
7BFC : ff;
7BFD : ff;
7BFE : ff;
7BFF : ff;
7C00 : ff;
7C01 : ff;
7C02 : ff;
7C03 : ff;
7C04 : ff;
7C05 : ff;
7C06 : ff;
7C07 : ff;
7C08 : ff;
7C09 : ff;
7C0A : ff;
7C0B : ff;
7C0C : ff;
7C0D : ff;
7C0E : ff;
7C0F : ff;
7C10 : ff;
7C11 : ff;
7C12 : ff;
7C13 : ff;
7C14 : ff;
7C15 : ff;
7C16 : ff;
7C17 : ff;
7C18 : ff;
7C19 : ff;
7C1A : ff;
7C1B : ff;
7C1C : ff;
7C1D : ff;
7C1E : ff;
7C1F : ff;
7C20 : ff;
7C21 : ff;
7C22 : ff;
7C23 : ff;
7C24 : ff;
7C25 : ff;
7C26 : ff;
7C27 : ff;
7C28 : ff;
7C29 : ff;
7C2A : ff;
7C2B : ff;
7C2C : ff;
7C2D : ff;
7C2E : ff;
7C2F : ff;
7C30 : ff;
7C31 : ff;
7C32 : ff;
7C33 : ff;
7C34 : ff;
7C35 : ff;
7C36 : ff;
7C37 : ff;
7C38 : ff;
7C39 : ff;
7C3A : ff;
7C3B : ff;
7C3C : ff;
7C3D : ff;
7C3E : ff;
7C3F : ff;
7C40 : ff;
7C41 : ff;
7C42 : ff;
7C43 : ff;
7C44 : ff;
7C45 : ff;
7C46 : ff;
7C47 : ff;
7C48 : ff;
7C49 : ff;
7C4A : ff;
7C4B : ff;
7C4C : ff;
7C4D : ff;
7C4E : ff;
7C4F : ff;
7C50 : ff;
7C51 : ff;
7C52 : ff;
7C53 : ff;
7C54 : ff;
7C55 : ff;
7C56 : ff;
7C57 : ff;
7C58 : ff;
7C59 : ff;
7C5A : ff;
7C5B : ff;
7C5C : ff;
7C5D : ff;
7C5E : ff;
7C5F : ff;
7C60 : ff;
7C61 : ff;
7C62 : ff;
7C63 : ff;
7C64 : ff;
7C65 : ff;
7C66 : ff;
7C67 : ff;
7C68 : ff;
7C69 : ff;
7C6A : ff;
7C6B : ff;
7C6C : ff;
7C6D : ff;
7C6E : ff;
7C6F : ff;
7C70 : ff;
7C71 : ff;
7C72 : ff;
7C73 : ff;
7C74 : ff;
7C75 : ff;
7C76 : ff;
7C77 : ff;
7C78 : ff;
7C79 : ff;
7C7A : ff;
7C7B : ff;
7C7C : ff;
7C7D : ff;
7C7E : ff;
7C7F : ff;
7C80 : ff;
7C81 : ff;
7C82 : ff;
7C83 : ff;
7C84 : ff;
7C85 : ff;
7C86 : ff;
7C87 : ff;
7C88 : ff;
7C89 : ff;
7C8A : ff;
7C8B : ff;
7C8C : ff;
7C8D : ff;
7C8E : ff;
7C8F : ff;
7C90 : ff;
7C91 : ff;
7C92 : ff;
7C93 : ff;
7C94 : ff;
7C95 : ff;
7C96 : ff;
7C97 : ff;
7C98 : ff;
7C99 : ff;
7C9A : ff;
7C9B : ff;
7C9C : ff;
7C9D : ff;
7C9E : ff;
7C9F : ff;
7CA0 : ff;
7CA1 : ff;
7CA2 : ff;
7CA3 : ff;
7CA4 : ff;
7CA5 : ff;
7CA6 : ff;
7CA7 : ff;
7CA8 : ff;
7CA9 : ff;
7CAA : ff;
7CAB : ff;
7CAC : ff;
7CAD : ff;
7CAE : ff;
7CAF : ff;
7CB0 : ff;
7CB1 : ff;
7CB2 : ff;
7CB3 : ff;
7CB4 : ff;
7CB5 : ff;
7CB6 : ff;
7CB7 : ff;
7CB8 : ff;
7CB9 : ff;
7CBA : ff;
7CBB : ff;
7CBC : ff;
7CBD : ff;
7CBE : ff;
7CBF : ff;
7CC0 : ff;
7CC1 : ff;
7CC2 : ff;
7CC3 : ff;
7CC4 : ff;
7CC5 : ff;
7CC6 : ff;
7CC7 : ff;
7CC8 : ff;
7CC9 : ff;
7CCA : ff;
7CCB : ff;
7CCC : ff;
7CCD : ff;
7CCE : ff;
7CCF : ff;
7CD0 : ff;
7CD1 : ff;
7CD2 : ff;
7CD3 : ff;
7CD4 : ff;
7CD5 : ff;
7CD6 : ff;
7CD7 : ff;
7CD8 : ff;
7CD9 : ff;
7CDA : ff;
7CDB : ff;
7CDC : ff;
7CDD : ff;
7CDE : ff;
7CDF : ff;
7CE0 : ff;
7CE1 : ff;
7CE2 : ff;
7CE3 : ff;
7CE4 : ff;
7CE5 : ff;
7CE6 : ff;
7CE7 : ff;
7CE8 : ff;
7CE9 : ff;
7CEA : ff;
7CEB : ff;
7CEC : ff;
7CED : ff;
7CEE : ff;
7CEF : ff;
7CF0 : ff;
7CF1 : ff;
7CF2 : ff;
7CF3 : ff;
7CF4 : ff;
7CF5 : ff;
7CF6 : ff;
7CF7 : ff;
7CF8 : ff;
7CF9 : ff;
7CFA : ff;
7CFB : ff;
7CFC : ff;
7CFD : ff;
7CFE : ff;
7CFF : ff;
7D00 : ff;
7D01 : ff;
7D02 : ff;
7D03 : ff;
7D04 : ff;
7D05 : ff;
7D06 : ff;
7D07 : ff;
7D08 : ff;
7D09 : ff;
7D0A : ff;
7D0B : ff;
7D0C : ff;
7D0D : ff;
7D0E : ff;
7D0F : ff;
7D10 : ff;
7D11 : ff;
7D12 : ff;
7D13 : ff;
7D14 : ff;
7D15 : ff;
7D16 : ff;
7D17 : ff;
7D18 : ff;
7D19 : ff;
7D1A : ff;
7D1B : ff;
7D1C : ff;
7D1D : ff;
7D1E : ff;
7D1F : ff;
7D20 : ff;
7D21 : ff;
7D22 : ff;
7D23 : ff;
7D24 : ff;
7D25 : ff;
7D26 : ff;
7D27 : ff;
7D28 : ff;
7D29 : ff;
7D2A : ff;
7D2B : ff;
7D2C : ff;
7D2D : ff;
7D2E : ff;
7D2F : ff;
7D30 : ff;
7D31 : ff;
7D32 : ff;
7D33 : ff;
7D34 : ff;
7D35 : ff;
7D36 : ff;
7D37 : ff;
7D38 : ff;
7D39 : ff;
7D3A : ff;
7D3B : ff;
7D3C : ff;
7D3D : ff;
7D3E : ff;
7D3F : ff;
7D40 : ff;
7D41 : ff;
7D42 : ff;
7D43 : ff;
7D44 : ff;
7D45 : ff;
7D46 : ff;
7D47 : ff;
7D48 : ff;
7D49 : ff;
7D4A : ff;
7D4B : ff;
7D4C : ff;
7D4D : ff;
7D4E : ff;
7D4F : ff;
7D50 : ff;
7D51 : ff;
7D52 : ff;
7D53 : ff;
7D54 : ff;
7D55 : ff;
7D56 : ff;
7D57 : ff;
7D58 : ff;
7D59 : ff;
7D5A : ff;
7D5B : ff;
7D5C : ff;
7D5D : ff;
7D5E : ff;
7D5F : ff;
7D60 : ff;
7D61 : ff;
7D62 : ff;
7D63 : ff;
7D64 : ff;
7D65 : ff;
7D66 : ff;
7D67 : ff;
7D68 : ff;
7D69 : ff;
7D6A : ff;
7D6B : ff;
7D6C : ff;
7D6D : ff;
7D6E : ff;
7D6F : ff;
7D70 : ff;
7D71 : ff;
7D72 : ff;
7D73 : ff;
7D74 : ff;
7D75 : ff;
7D76 : ff;
7D77 : ff;
7D78 : ff;
7D79 : ff;
7D7A : ff;
7D7B : ff;
7D7C : ff;
7D7D : ff;
7D7E : ff;
7D7F : ff;
7D80 : ff;
7D81 : ff;
7D82 : ff;
7D83 : ff;
7D84 : ff;
7D85 : ff;
7D86 : ff;
7D87 : ff;
7D88 : ff;
7D89 : ff;
7D8A : ff;
7D8B : ff;
7D8C : ff;
7D8D : ff;
7D8E : ff;
7D8F : ff;
7D90 : ff;
7D91 : ff;
7D92 : ff;
7D93 : ff;
7D94 : ff;
7D95 : ff;
7D96 : ff;
7D97 : ff;
7D98 : ff;
7D99 : ff;
7D9A : ff;
7D9B : ff;
7D9C : ff;
7D9D : ff;
7D9E : ff;
7D9F : ff;
7DA0 : ff;
7DA1 : ff;
7DA2 : ff;
7DA3 : ff;
7DA4 : ff;
7DA5 : ff;
7DA6 : ff;
7DA7 : ff;
7DA8 : ff;
7DA9 : ff;
7DAA : ff;
7DAB : ff;
7DAC : ff;
7DAD : ff;
7DAE : ff;
7DAF : ff;
7DB0 : ff;
7DB1 : ff;
7DB2 : ff;
7DB3 : ff;
7DB4 : ff;
7DB5 : ff;
7DB6 : ff;
7DB7 : ff;
7DB8 : ff;
7DB9 : ff;
7DBA : ff;
7DBB : ff;
7DBC : ff;
7DBD : ff;
7DBE : ff;
7DBF : ff;
7DC0 : ff;
7DC1 : ff;
7DC2 : ff;
7DC3 : ff;
7DC4 : ff;
7DC5 : ff;
7DC6 : ff;
7DC7 : ff;
7DC8 : ff;
7DC9 : ff;
7DCA : ff;
7DCB : ff;
7DCC : ff;
7DCD : ff;
7DCE : ff;
7DCF : ff;
7DD0 : ff;
7DD1 : ff;
7DD2 : ff;
7DD3 : ff;
7DD4 : ff;
7DD5 : ff;
7DD6 : ff;
7DD7 : ff;
7DD8 : ff;
7DD9 : ff;
7DDA : ff;
7DDB : ff;
7DDC : ff;
7DDD : ff;
7DDE : ff;
7DDF : ff;
7DE0 : ff;
7DE1 : ff;
7DE2 : ff;
7DE3 : ff;
7DE4 : ff;
7DE5 : ff;
7DE6 : ff;
7DE7 : ff;
7DE8 : ff;
7DE9 : ff;
7DEA : ff;
7DEB : ff;
7DEC : ff;
7DED : ff;
7DEE : ff;
7DEF : ff;
7DF0 : ff;
7DF1 : ff;
7DF2 : ff;
7DF3 : ff;
7DF4 : ff;
7DF5 : ff;
7DF6 : ff;
7DF7 : ff;
7DF8 : ff;
7DF9 : ff;
7DFA : ff;
7DFB : ff;
7DFC : ff;
7DFD : ff;
7DFE : ff;
7DFF : ff;
7E00 : ff;
7E01 : ff;
7E02 : ff;
7E03 : ff;
7E04 : ff;
7E05 : ff;
7E06 : ff;
7E07 : ff;
7E08 : ff;
7E09 : ff;
7E0A : ff;
7E0B : ff;
7E0C : ff;
7E0D : ff;
7E0E : ff;
7E0F : ff;
7E10 : ff;
7E11 : ff;
7E12 : ff;
7E13 : ff;
7E14 : ff;
7E15 : ff;
7E16 : ff;
7E17 : ff;
7E18 : ff;
7E19 : ff;
7E1A : ff;
7E1B : ff;
7E1C : ff;
7E1D : ff;
7E1E : ff;
7E1F : ff;
7E20 : ff;
7E21 : ff;
7E22 : ff;
7E23 : ff;
7E24 : ff;
7E25 : ff;
7E26 : ff;
7E27 : ff;
7E28 : ff;
7E29 : ff;
7E2A : ff;
7E2B : ff;
7E2C : ff;
7E2D : ff;
7E2E : ff;
7E2F : ff;
7E30 : ff;
7E31 : ff;
7E32 : ff;
7E33 : ff;
7E34 : ff;
7E35 : ff;
7E36 : ff;
7E37 : ff;
7E38 : ff;
7E39 : ff;
7E3A : ff;
7E3B : ff;
7E3C : ff;
7E3D : ff;
7E3E : ff;
7E3F : ff;
7E40 : ff;
7E41 : ff;
7E42 : ff;
7E43 : ff;
7E44 : ff;
7E45 : ff;
7E46 : ff;
7E47 : ff;
7E48 : ff;
7E49 : ff;
7E4A : ff;
7E4B : ff;
7E4C : ff;
7E4D : ff;
7E4E : ff;
7E4F : ff;
7E50 : ff;
7E51 : ff;
7E52 : ff;
7E53 : ff;
7E54 : ff;
7E55 : ff;
7E56 : ff;
7E57 : ff;
7E58 : ff;
7E59 : ff;
7E5A : ff;
7E5B : ff;
7E5C : ff;
7E5D : ff;
7E5E : ff;
7E5F : ff;
7E60 : ff;
7E61 : ff;
7E62 : ff;
7E63 : ff;
7E64 : ff;
7E65 : ff;
7E66 : ff;
7E67 : ff;
7E68 : ff;
7E69 : ff;
7E6A : ff;
7E6B : ff;
7E6C : ff;
7E6D : ff;
7E6E : ff;
7E6F : ff;
7E70 : ff;
7E71 : ff;
7E72 : ff;
7E73 : ff;
7E74 : ff;
7E75 : ff;
7E76 : ff;
7E77 : ff;
7E78 : ff;
7E79 : ff;
7E7A : ff;
7E7B : ff;
7E7C : ff;
7E7D : ff;
7E7E : ff;
7E7F : ff;
7E80 : ff;
7E81 : ff;
7E82 : ff;
7E83 : ff;
7E84 : ff;
7E85 : ff;
7E86 : ff;
7E87 : ff;
7E88 : ff;
7E89 : ff;
7E8A : ff;
7E8B : ff;
7E8C : ff;
7E8D : ff;
7E8E : ff;
7E8F : ff;
7E90 : ff;
7E91 : ff;
7E92 : ff;
7E93 : ff;
7E94 : ff;
7E95 : ff;
7E96 : ff;
7E97 : ff;
7E98 : ff;
7E99 : ff;
7E9A : ff;
7E9B : ff;
7E9C : ff;
7E9D : ff;
7E9E : ff;
7E9F : ff;
7EA0 : ff;
7EA1 : ff;
7EA2 : ff;
7EA3 : ff;
7EA4 : ff;
7EA5 : ff;
7EA6 : ff;
7EA7 : ff;
7EA8 : ff;
7EA9 : ff;
7EAA : ff;
7EAB : ff;
7EAC : ff;
7EAD : ff;
7EAE : ff;
7EAF : ff;
7EB0 : ff;
7EB1 : ff;
7EB2 : ff;
7EB3 : ff;
7EB4 : ff;
7EB5 : ff;
7EB6 : ff;
7EB7 : ff;
7EB8 : ff;
7EB9 : ff;
7EBA : ff;
7EBB : ff;
7EBC : ff;
7EBD : ff;
7EBE : ff;
7EBF : ff;
7EC0 : ff;
7EC1 : ff;
7EC2 : ff;
7EC3 : ff;
7EC4 : ff;
7EC5 : ff;
7EC6 : ff;
7EC7 : ff;
7EC8 : ff;
7EC9 : ff;
7ECA : ff;
7ECB : ff;
7ECC : ff;
7ECD : ff;
7ECE : ff;
7ECF : ff;
7ED0 : ff;
7ED1 : ff;
7ED2 : ff;
7ED3 : ff;
7ED4 : ff;
7ED5 : ff;
7ED6 : ff;
7ED7 : ff;
7ED8 : ff;
7ED9 : ff;
7EDA : ff;
7EDB : ff;
7EDC : ff;
7EDD : ff;
7EDE : ff;
7EDF : ff;
7EE0 : ff;
7EE1 : ff;
7EE2 : ff;
7EE3 : ff;
7EE4 : ff;
7EE5 : ff;
7EE6 : ff;
7EE7 : ff;
7EE8 : ff;
7EE9 : ff;
7EEA : ff;
7EEB : ff;
7EEC : ff;
7EED : ff;
7EEE : ff;
7EEF : ff;
7EF0 : ff;
7EF1 : ff;
7EF2 : ff;
7EF3 : ff;
7EF4 : ff;
7EF5 : ff;
7EF6 : ff;
7EF7 : ff;
7EF8 : ff;
7EF9 : ff;
7EFA : ff;
7EFB : ff;
7EFC : ff;
7EFD : ff;
7EFE : ff;
7EFF : ff;
7F00 : ff;
7F01 : ff;
7F02 : ff;
7F03 : ff;
7F04 : ff;
7F05 : ff;
7F06 : ff;
7F07 : ff;
7F08 : ff;
7F09 : ff;
7F0A : ff;
7F0B : ff;
7F0C : ff;
7F0D : ff;
7F0E : ff;
7F0F : ff;
7F10 : ff;
7F11 : ff;
7F12 : ff;
7F13 : ff;
7F14 : ff;
7F15 : ff;
7F16 : ff;
7F17 : ff;
7F18 : ff;
7F19 : ff;
7F1A : ff;
7F1B : ff;
7F1C : ff;
7F1D : ff;
7F1E : ff;
7F1F : ff;
7F20 : ff;
7F21 : ff;
7F22 : ff;
7F23 : ff;
7F24 : ff;
7F25 : ff;
7F26 : ff;
7F27 : ff;
7F28 : ff;
7F29 : ff;
7F2A : ff;
7F2B : ff;
7F2C : ff;
7F2D : ff;
7F2E : ff;
7F2F : ff;
7F30 : ff;
7F31 : ff;
7F32 : ff;
7F33 : ff;
7F34 : ff;
7F35 : ff;
7F36 : ff;
7F37 : ff;
7F38 : ff;
7F39 : ff;
7F3A : ff;
7F3B : ff;
7F3C : ff;
7F3D : ff;
7F3E : ff;
7F3F : ff;
7F40 : ff;
7F41 : ff;
7F42 : ff;
7F43 : ff;
7F44 : ff;
7F45 : ff;
7F46 : ff;
7F47 : ff;
7F48 : ff;
7F49 : ff;
7F4A : ff;
7F4B : ff;
7F4C : ff;
7F4D : ff;
7F4E : ff;
7F4F : ff;
7F50 : ff;
7F51 : ff;
7F52 : ff;
7F53 : ff;
7F54 : ff;
7F55 : ff;
7F56 : ff;
7F57 : ff;
7F58 : ff;
7F59 : ff;
7F5A : ff;
7F5B : ff;
7F5C : ff;
7F5D : ff;
7F5E : ff;
7F5F : ff;
7F60 : ff;
7F61 : ff;
7F62 : ff;
7F63 : ff;
7F64 : ff;
7F65 : ff;
7F66 : ff;
7F67 : ff;
7F68 : ff;
7F69 : ff;
7F6A : ff;
7F6B : ff;
7F6C : ff;
7F6D : ff;
7F6E : ff;
7F6F : ff;
7F70 : ff;
7F71 : ff;
7F72 : ff;
7F73 : ff;
7F74 : ff;
7F75 : ff;
7F76 : ff;
7F77 : ff;
7F78 : ff;
7F79 : ff;
7F7A : ff;
7F7B : ff;
7F7C : ff;
7F7D : ff;
7F7E : ff;
7F7F : ff;
7F80 : ff;
7F81 : ff;
7F82 : ff;
7F83 : ff;
7F84 : ff;
7F85 : ff;
7F86 : ff;
7F87 : ff;
7F88 : ff;
7F89 : ff;
7F8A : ff;
7F8B : ff;
7F8C : ff;
7F8D : ff;
7F8E : ff;
7F8F : ff;
7F90 : ff;
7F91 : ff;
7F92 : ff;
7F93 : ff;
7F94 : ff;
7F95 : ff;
7F96 : ff;
7F97 : ff;
7F98 : ff;
7F99 : ff;
7F9A : ff;
7F9B : ff;
7F9C : ff;
7F9D : ff;
7F9E : ff;
7F9F : ff;
7FA0 : ff;
7FA1 : ff;
7FA2 : ff;
7FA3 : ff;
7FA4 : ff;
7FA5 : ff;
7FA6 : ff;
7FA7 : ff;
7FA8 : ff;
7FA9 : ff;
7FAA : ff;
7FAB : ff;
7FAC : ff;
7FAD : ff;
7FAE : ff;
7FAF : ff;
7FB0 : ff;
7FB1 : ff;
7FB2 : ff;
7FB3 : ff;
7FB4 : ff;
7FB5 : ff;
7FB6 : ff;
7FB7 : ff;
7FB8 : ff;
7FB9 : ff;
7FBA : ff;
7FBB : ff;
7FBC : ff;
7FBD : ff;
7FBE : ff;
7FBF : ff;
7FC0 : ff;
7FC1 : ff;
7FC2 : ff;
7FC3 : ff;
7FC4 : ff;
7FC5 : ff;
7FC6 : ff;
7FC7 : ff;
7FC8 : ff;
7FC9 : ff;
7FCA : ff;
7FCB : ff;
7FCC : ff;
7FCD : ff;
7FCE : ff;
7FCF : ff;
7FD0 : ff;
7FD1 : ff;
7FD2 : ff;
7FD3 : ff;
7FD4 : ff;
7FD5 : ff;
7FD6 : ff;
7FD7 : ff;
7FD8 : ff;
7FD9 : ff;
7FDA : ff;
7FDB : ff;
7FDC : ff;
7FDD : ff;
7FDE : ff;
7FDF : ff;
7FE0 : ff;
7FE1 : ff;
7FE2 : ff;
7FE3 : ff;
7FE4 : ff;
7FE5 : ff;
7FE6 : ff;
7FE7 : ff;
7FE8 : ff;
7FE9 : ff;
7FEA : ff;
7FEB : ff;
7FEC : ff;
7FED : ff;
7FEE : ff;
7FEF : ff;
7FF0 : ff;
7FF1 : ff;
7FF2 : ff;
7FF3 : ff;
7FF4 : ff;
7FF5 : ff;
7FF6 : ec;
7FF7 : ec;
7FF8 : 0e;
7FF9 : c1;
7FFA : 0e;
7FFB : c1;
7FFC : 33;
7FFD : c0;
7FFE : 7e;
7FFF : c1;
END;