DEPTH=32768;
WIDTH=8;
ADDRESS_RADIX=HEX;
DATA_RADIX=HEX;
CONTENT
BEGIN
   0 : 78;
   1 : d8;
   2 : a9;
   3 : 10;
   4 : 8d;
   5 : 00;
   6 : 20;
   7 : a2;
   8 : ff;
   9 : 9a;
   A : ad;
   B : 02;
   C : 20;
   D : 10;
   E : fb;
   F : ad;
  10 : 02;
  11 : 20;
  12 : 10;
  13 : fb;
  14 : a0;
  15 : fe;
  16 : a2;
  17 : 05;
  18 : bd;
  19 : d7;
  1A : 07;
  1B : c9;
  1C : 0a;
  1D : b0;
  1E : 0c;
  1F : ca;
  20 : 10;
  21 : f6;
  22 : ad;
  23 : ff;
  24 : 07;
  25 : c9;
  26 : a5;
  27 : d0;
  28 : 02;
  29 : a0;
  2A : d6;
  2B : 20;
  2C : cc;
  2D : 90;
  2E : 8d;
  2F : 11;
  30 : 40;
  31 : 8d;
  32 : 70;
  33 : 07;
  34 : a9;
  35 : a5;
  36 : 8d;
  37 : ff;
  38 : 07;
  39 : 8d;
  3A : a7;
  3B : 07;
  3C : a9;
  3D : 0f;
  3E : 8d;
  3F : 15;
  40 : 40;
  41 : a9;
  42 : 06;
  43 : 8d;
  44 : 01;
  45 : 20;
  46 : 20;
  47 : 20;
  48 : 82;
  49 : 20;
  4A : 19;
  4B : 8e;
  4C : ee;
  4D : 74;
  4E : 07;
  4F : ad;
  50 : 78;
  51 : 07;
  52 : 09;
  53 : 80;
  54 : 20;
  55 : ed;
  56 : 8e;
  57 : 4c;
  58 : 57;
  59 : 80;
  5A : 01;
  5B : a4;
  5C : c8;
  5D : ec;
  5E : 10;
  5F : 00;
  60 : 41;
  61 : 41;
  62 : 4c;
  63 : 34;
  64 : 3c;
  65 : 44;
  66 : 54;
  67 : 68;
  68 : 7c;
  69 : a8;
  6A : bf;
  6B : de;
  6C : ef;
  6D : 03;
  6E : 8c;
  6F : 8c;
  70 : 8c;
  71 : 8d;
  72 : 03;
  73 : 03;
  74 : 03;
  75 : 8d;
  76 : 8d;
  77 : 8d;
  78 : 8d;
  79 : 8d;
  7A : 8d;
  7B : 8d;
  7C : 8d;
  7D : 8d;
  7E : 8d;
  7F : 8d;
  80 : 00;
  81 : 40;
  82 : ad;
  83 : 78;
  84 : 07;
  85 : 29;
  86 : 7f;
  87 : 8d;
  88 : 78;
  89 : 07;
  8A : 29;
  8B : 7e;
  8C : 8d;
  8D : 00;
  8E : 20;
  8F : ad;
  90 : 79;
  91 : 07;
  92 : 29;
  93 : e6;
  94 : ac;
  95 : 74;
  96 : 07;
  97 : d0;
  98 : 05;
  99 : ad;
  9A : 79;
  9B : 07;
  9C : 09;
  9D : 1e;
  9E : 8d;
  9F : 79;
  A0 : 07;
  A1 : 29;
  A2 : e7;
  A3 : 8d;
  A4 : 01;
  A5 : 20;
  A6 : ae;
  A7 : 02;
  A8 : 20;
  A9 : a9;
  AA : 00;
  AB : 20;
  AC : e6;
  AD : 8e;
  AE : 8d;
  AF : 03;
  B0 : 20;
  B1 : a9;
  B2 : 02;
  B3 : 8d;
  B4 : 14;
  B5 : 40;
  B6 : ae;
  B7 : 73;
  B8 : 07;
  B9 : bd;
  BA : 5a;
  BB : 80;
  BC : 85;
  BD : 00;
  BE : bd;
  BF : 6d;
  C0 : 80;
  C1 : 85;
  C2 : 01;
  C3 : 20;
  C4 : dd;
  C5 : 8e;
  C6 : a0;
  C7 : 00;
  C8 : ae;
  C9 : 73;
  CA : 07;
  CB : e0;
  CC : 06;
  CD : d0;
  CE : 01;
  CF : c8;
  D0 : be;
  D1 : 80;
  D2 : 80;
  D3 : a9;
  D4 : 00;
  D5 : 9d;
  D6 : 00;
  D7 : 03;
  D8 : 9d;
  D9 : 01;
  DA : 03;
  DB : 8d;
  DC : 73;
  DD : 07;
  DE : ad;
  DF : 79;
  E0 : 07;
  E1 : 8d;
  E2 : 01;
  E3 : 20;
  E4 : 20;
  E5 : d1;
  E6 : f2;
  E7 : 20;
  E8 : 5c;
  E9 : 8e;
  EA : 20;
  EB : 82;
  EC : 81;
  ED : 20;
  EE : 97;
  EF : 8f;
  F0 : ad;
  F1 : 76;
  F2 : 07;
  F3 : 4a;
  F4 : b0;
  F5 : 25;
  F6 : ad;
  F7 : 47;
  F8 : 07;
  F9 : f0;
  FA : 05;
  FB : ce;
  FC : 47;
  FD : 07;
  FE : d0;
  FF : 19;
 100 : a2;
 101 : 14;
 102 : ce;
 103 : 7f;
 104 : 07;
 105 : 10;
 106 : 07;
 107 : a9;
 108 : 11;
 109 : 8d;
 10A : 7f;
 10B : 07;
 10C : a2;
 10D : 23;
 10E : bd;
 10F : 80;
 110 : 07;
 111 : f0;
 112 : 03;
 113 : de;
 114 : 80;
 115 : 07;
 116 : ca;
 117 : 10;
 118 : f5;
 119 : e6;
 11A : 09;
 11B : a2;
 11C : 00;
 11D : a0;
 11E : 07;
 11F : ad;
 120 : a7;
 121 : 07;
 122 : 29;
 123 : 02;
 124 : 85;
 125 : 00;
 126 : ad;
 127 : a8;
 128 : 07;
 129 : 29;
 12A : 02;
 12B : 45;
 12C : 00;
 12D : 18;
 12E : f0;
 12F : 01;
 130 : 38;
 131 : 7e;
 132 : a7;
 133 : 07;
 134 : e8;
 135 : 88;
 136 : d0;
 137 : f9;
 138 : ad;
 139 : 22;
 13A : 07;
 13B : f0;
 13C : 1f;
 13D : ad;
 13E : 02;
 13F : 20;
 140 : 29;
 141 : 40;
 142 : d0;
 143 : f9;
 144 : ad;
 145 : 76;
 146 : 07;
 147 : 4a;
 148 : b0;
 149 : 06;
 14A : 20;
 14B : 23;
 14C : 82;
 14D : 20;
 14E : c6;
 14F : 81;
 150 : ad;
 151 : 02;
 152 : 20;
 153 : 29;
 154 : 40;
 155 : f0;
 156 : f9;
 157 : a0;
 158 : 14;
 159 : 88;
 15A : d0;
 15B : fd;
 15C : ad;
 15D : 3f;
 15E : 07;
 15F : 8d;
 160 : 05;
 161 : 20;
 162 : ad;
 163 : 40;
 164 : 07;
 165 : 8d;
 166 : 05;
 167 : 20;
 168 : ad;
 169 : 78;
 16A : 07;
 16B : 48;
 16C : 8d;
 16D : 00;
 16E : 20;
 16F : ad;
 170 : 76;
 171 : 07;
 172 : 4a;
 173 : b0;
 174 : 03;
 175 : 20;
 176 : 12;
 177 : 82;
 178 : ad;
 179 : 02;
 17A : 20;
 17B : 68;
 17C : 09;
 17D : 80;
 17E : 8d;
 17F : 00;
 180 : 20;
 181 : 40;
 182 : ad;
 183 : 70;
 184 : 07;
 185 : c9;
 186 : 02;
 187 : f0;
 188 : 0b;
 189 : c9;
 18A : 01;
 18B : d0;
 18C : 38;
 18D : ad;
 18E : 72;
 18F : 07;
 190 : c9;
 191 : 03;
 192 : d0;
 193 : 31;
 194 : ad;
 195 : 77;
 196 : 07;
 197 : f0;
 198 : 04;
 199 : ce;
 19A : 77;
 19B : 07;
 19C : 60;
 19D : ad;
 19E : fc;
 19F : 06;
 1A0 : 29;
 1A1 : 10;
 1A2 : f0;
 1A3 : 19;
 1A4 : ad;
 1A5 : 76;
 1A6 : 07;
 1A7 : 29;
 1A8 : 80;
 1A9 : d0;
 1AA : 1a;
 1AB : a9;
 1AC : 2b;
 1AD : 8d;
 1AE : 77;
 1AF : 07;
 1B0 : ad;
 1B1 : 76;
 1B2 : 07;
 1B3 : a8;
 1B4 : c8;
 1B5 : 84;
 1B6 : fa;
 1B7 : 49;
 1B8 : 01;
 1B9 : 09;
 1BA : 80;
 1BB : d0;
 1BC : 05;
 1BD : ad;
 1BE : 76;
 1BF : 07;
 1C0 : 29;
 1C1 : 7f;
 1C2 : 8d;
 1C3 : 76;
 1C4 : 07;
 1C5 : 60;
 1C6 : ac;
 1C7 : 4e;
 1C8 : 07;
 1C9 : a9;
 1CA : 28;
 1CB : 85;
 1CC : 00;
 1CD : a2;
 1CE : 0e;
 1CF : bd;
 1D0 : e4;
 1D1 : 06;
 1D2 : c5;
 1D3 : 00;
 1D4 : 90;
 1D5 : 0f;
 1D6 : ac;
 1D7 : e0;
 1D8 : 06;
 1D9 : 18;
 1DA : 79;
 1DB : e1;
 1DC : 06;
 1DD : 90;
 1DE : 03;
 1DF : 18;
 1E0 : 65;
 1E1 : 00;
 1E2 : 9d;
 1E3 : e4;
 1E4 : 06;
 1E5 : ca;
 1E6 : 10;
 1E7 : e7;
 1E8 : ae;
 1E9 : e0;
 1EA : 06;
 1EB : e8;
 1EC : e0;
 1ED : 03;
 1EE : d0;
 1EF : 02;
 1F0 : a2;
 1F1 : 00;
 1F2 : 8e;
 1F3 : e0;
 1F4 : 06;
 1F5 : a2;
 1F6 : 08;
 1F7 : a0;
 1F8 : 02;
 1F9 : b9;
 1FA : e9;
 1FB : 06;
 1FC : 9d;
 1FD : f1;
 1FE : 06;
 1FF : 18;
 200 : 69;
 201 : 08;
 202 : 9d;
 203 : f2;
 204 : 06;
 205 : 18;
 206 : 69;
 207 : 08;
 208 : 9d;
 209 : f3;
 20A : 06;
 20B : ca;
 20C : ca;
 20D : ca;
 20E : 88;
 20F : 10;
 210 : e8;
 211 : 60;
 212 : ad;
 213 : 70;
 214 : 07;
 215 : 20;
 216 : 04;
 217 : 8e;
 218 : 31;
 219 : 82;
 21A : dc;
 21B : ae;
 21C : 8b;
 21D : 83;
 21E : 18;
 21F : 92;
 220 : a0;
 221 : 00;
 222 : 2c;
 223 : a0;
 224 : 04;
 225 : a9;
 226 : f8;
 227 : 99;
 228 : 00;
 229 : 02;
 22A : c8;
 22B : c8;
 22C : c8;
 22D : c8;
 22E : d0;
 22F : f7;
 230 : 60;
 231 : ad;
 232 : 72;
 233 : 07;
 234 : 20;
 235 : 04;
 236 : 8e;
 237 : cf;
 238 : 8f;
 239 : 67;
 23A : 85;
 23B : 61;
 23C : 90;
 23D : 45;
 23E : 82;
 23F : 04;
 240 : 20;
 241 : 73;
 242 : 01;
 243 : 00;
 244 : 00;
 245 : a0;
 246 : 00;
 247 : ad;
 248 : fc;
 249 : 06;
 24A : 0d;
 24B : fd;
 24C : 06;
 24D : c9;
 24E : 10;
 24F : f0;
 250 : 04;
 251 : c9;
 252 : 90;
 253 : d0;
 254 : 03;
 255 : 4c;
 256 : d8;
 257 : 82;
 258 : c9;
 259 : 20;
 25A : f0;
 25B : 1a;
 25C : ae;
 25D : a2;
 25E : 07;
 25F : d0;
 260 : 0b;
 261 : 8d;
 262 : 80;
 263 : 07;
 264 : 20;
 265 : 6b;
 266 : 83;
 267 : b0;
 268 : 60;
 269 : 4c;
 26A : c0;
 26B : 82;
 26C : ae;
 26D : fc;
 26E : 07;
 26F : f0;
 270 : 4a;
 271 : c9;
 272 : 40;
 273 : d0;
 274 : 46;
 275 : c8;
 276 : ad;
 277 : a2;
 278 : 07;
 279 : f0;
 27A : 4e;
 27B : a9;
 27C : 18;
 27D : 8d;
 27E : a2;
 27F : 07;
 280 : ad;
 281 : 80;
 282 : 07;
 283 : d0;
 284 : 36;
 285 : a9;
 286 : 10;
 287 : 8d;
 288 : 80;
 289 : 07;
 28A : c0;
 28B : 01;
 28C : f0;
 28D : 0e;
 28E : ad;
 28F : 7a;
 290 : 07;
 291 : 49;
 292 : 01;
 293 : 8d;
 294 : 7a;
 295 : 07;
 296 : 20;
 297 : 25;
 298 : 83;
 299 : 4c;
 29A : bb;
 29B : 82;
 29C : ae;
 29D : 6b;
 29E : 07;
 29F : e8;
 2A0 : 8a;
 2A1 : 29;
 2A2 : 07;
 2A3 : 8d;
 2A4 : 6b;
 2A5 : 07;
 2A6 : 20;
 2A7 : 0e;
 2A8 : 83;
 2A9 : bd;
 2AA : 3f;
 2AB : 82;
 2AC : 9d;
 2AD : 00;
 2AE : 03;
 2AF : e8;
 2B0 : e0;
 2B1 : 06;
 2B2 : 30;
 2B3 : f5;
 2B4 : ac;
 2B5 : 5f;
 2B6 : 07;
 2B7 : c8;
 2B8 : 8c;
 2B9 : 04;
 2BA : 03;
 2BB : a9;
 2BC : 00;
 2BD : 8d;
 2BE : fc;
 2BF : 06;
 2C0 : 20;
 2C1 : ea;
 2C2 : ae;
 2C3 : a5;
 2C4 : 0e;
 2C5 : c9;
 2C6 : 06;
 2C7 : d0;
 2C8 : 44;
 2C9 : a9;
 2CA : 00;
 2CB : 8d;
 2CC : 70;
 2CD : 07;
 2CE : 8d;
 2CF : 72;
 2D0 : 07;
 2D1 : 8d;
 2D2 : 22;
 2D3 : 07;
 2D4 : ee;
 2D5 : 74;
 2D6 : 07;
 2D7 : 60;
 2D8 : ac;
 2D9 : a2;
 2DA : 07;
 2DB : f0;
 2DC : ec;
 2DD : 0a;
 2DE : 90;
 2DF : 06;
 2E0 : ad;
 2E1 : fd;
 2E2 : 07;
 2E3 : 20;
 2E4 : 0e;
 2E5 : 83;
 2E6 : 20;
 2E7 : 03;
 2E8 : 9c;
 2E9 : ee;
 2EA : 5d;
 2EB : 07;
 2EC : ee;
 2ED : 64;
 2EE : 07;
 2EF : ee;
 2F0 : 57;
 2F1 : 07;
 2F2 : ee;
 2F3 : 70;
 2F4 : 07;
 2F5 : ad;
 2F6 : fc;
 2F7 : 07;
 2F8 : 8d;
 2F9 : 6a;
 2FA : 07;
 2FB : a9;
 2FC : 00;
 2FD : 8d;
 2FE : 72;
 2FF : 07;
 300 : 8d;
 301 : a2;
 302 : 07;
 303 : a2;
 304 : 17;
 305 : a9;
 306 : 00;
 307 : 9d;
 308 : dd;
 309 : 07;
 30A : ca;
 30B : 10;
 30C : fa;
 30D : 60;
 30E : 8d;
 30F : 5f;
 310 : 07;
 311 : 8d;
 312 : 66;
 313 : 07;
 314 : a2;
 315 : 00;
 316 : 8e;
 317 : 60;
 318 : 07;
 319 : 8e;
 31A : 67;
 31B : 07;
 31C : 60;
 31D : 07;
 31E : 22;
 31F : 49;
 320 : 83;
 321 : ce;
 322 : 24;
 323 : 24;
 324 : 00;
 325 : a0;
 326 : 07;
 327 : b9;
 328 : 1d;
 329 : 83;
 32A : 99;
 32B : 00;
 32C : 03;
 32D : 88;
 32E : 10;
 32F : f7;
 330 : ad;
 331 : 7a;
 332 : 07;
 333 : f0;
 334 : 0a;
 335 : a9;
 336 : 24;
 337 : 8d;
 338 : 04;
 339 : 03;
 33A : a9;
 33B : ce;
 33C : 8d;
 33D : 06;
 33E : 03;
 33F : 60;
 340 : 01;
 341 : 80;
 342 : 02;
 343 : 81;
 344 : 41;
 345 : 80;
 346 : 01;
 347 : 42;
 348 : c2;
 349 : 02;
 34A : 80;
 34B : 41;
 34C : c1;
 34D : 41;
 34E : c1;
 34F : 01;
 350 : c1;
 351 : 01;
 352 : 02;
 353 : 80;
 354 : 00;
 355 : 9b;
 356 : 10;
 357 : 18;
 358 : 05;
 359 : 2c;
 35A : 20;
 35B : 24;
 35C : 15;
 35D : 5a;
 35E : 10;
 35F : 20;
 360 : 28;
 361 : 30;
 362 : 20;
 363 : 10;
 364 : 80;
 365 : 20;
 366 : 30;
 367 : 30;
 368 : 01;
 369 : ff;
 36A : 00;
 36B : ae;
 36C : 17;
 36D : 07;
 36E : ad;
 36F : 18;
 370 : 07;
 371 : d0;
 372 : 0d;
 373 : e8;
 374 : ee;
 375 : 17;
 376 : 07;
 377 : 38;
 378 : bd;
 379 : 54;
 37A : 83;
 37B : 8d;
 37C : 18;
 37D : 07;
 37E : f0;
 37F : 0a;
 380 : bd;
 381 : 3f;
 382 : 83;
 383 : 8d;
 384 : fc;
 385 : 06;
 386 : ce;
 387 : 18;
 388 : 07;
 389 : 18;
 38A : 60;
 38B : 20;
 38C : a0;
 38D : 83;
 38E : ad;
 38F : 72;
 390 : 07;
 391 : f0;
 392 : 07;
 393 : a2;
 394 : 00;
 395 : 86;
 396 : 08;
 397 : 20;
 398 : 4d;
 399 : c0;
 39A : 20;
 39B : 31;
 39C : f1;
 39D : 4c;
 39E : f0;
 39F : ee;
 3A0 : ad;
 3A1 : 72;
 3A2 : 07;
 3A3 : 20;
 3A4 : 04;
 3A5 : 8e;
 3A6 : b4;
 3A7 : cf;
 3A8 : b0;
 3A9 : 83;
 3AA : bd;
 3AB : 83;
 3AC : f6;
 3AD : 83;
 3AE : 61;
 3AF : 84;
 3B0 : ae;
 3B1 : 1b;
 3B2 : 07;
 3B3 : e8;
 3B4 : 86;
 3B5 : 34;
 3B6 : a9;
 3B7 : 08;
 3B8 : 85;
 3B9 : fc;
 3BA : 4c;
 3BB : 4e;
 3BC : 87;
 3BD : a0;
 3BE : 00;
 3BF : 84;
 3C0 : 35;
 3C1 : a5;
 3C2 : 6d;
 3C3 : c5;
 3C4 : 34;
 3C5 : d0;
 3C6 : 06;
 3C7 : a5;
 3C8 : 86;
 3C9 : c9;
 3CA : 60;
 3CB : b0;
 3CC : 03;
 3CD : e6;
 3CE : 35;
 3CF : c8;
 3D0 : 98;
 3D1 : 20;
 3D2 : e6;
 3D3 : b0;
 3D4 : ad;
 3D5 : 1a;
 3D6 : 07;
 3D7 : c5;
 3D8 : 34;
 3D9 : f0;
 3DA : 16;
 3DB : ad;
 3DC : 68;
 3DD : 07;
 3DE : 18;
 3DF : 69;
 3E0 : 80;
 3E1 : 8d;
 3E2 : 68;
 3E3 : 07;
 3E4 : a9;
 3E5 : 01;
 3E6 : 69;
 3E7 : 00;
 3E8 : a8;
 3E9 : 20;
 3EA : c4;
 3EB : af;
 3EC : 20;
 3ED : 6f;
 3EE : af;
 3EF : e6;
 3F0 : 35;
 3F1 : a5;
 3F2 : 35;
 3F3 : f0;
 3F4 : 68;
 3F5 : 60;
 3F6 : ad;
 3F7 : 49;
 3F8 : 07;
 3F9 : d0;
 3FA : 48;
 3FB : ad;
 3FC : 19;
 3FD : 07;
 3FE : f0;
 3FF : 18;
 400 : c9;
 401 : 09;
 402 : b0;
 403 : 3f;
 404 : ac;
 405 : 5f;
 406 : 07;
 407 : c0;
 408 : 07;
 409 : d0;
 40A : 09;
 40B : c9;
 40C : 03;
 40D : 90;
 40E : 34;
 40F : e9;
 410 : 01;
 411 : 4c;
 412 : 18;
 413 : 84;
 414 : c9;
 415 : 02;
 416 : 90;
 417 : 2b;
 418 : a8;
 419 : d0;
 41A : 08;
 41B : ad;
 41C : 53;
 41D : 07;
 41E : f0;
 41F : 14;
 420 : c8;
 421 : d0;
 422 : 11;
 423 : c8;
 424 : ad;
 425 : 5f;
 426 : 07;
 427 : c9;
 428 : 07;
 429 : f0;
 42A : 09;
 42B : 88;
 42C : c0;
 42D : 04;
 42E : b0;
 42F : 26;
 430 : c0;
 431 : 03;
 432 : b0;
 433 : 0f;
 434 : c0;
 435 : 03;
 436 : d0;
 437 : 04;
 438 : a9;
 439 : 04;
 43A : 85;
 43B : fc;
 43C : 98;
 43D : 18;
 43E : 69;
 43F : 0c;
 440 : 8d;
 441 : 73;
 442 : 07;
 443 : ad;
 444 : 49;
 445 : 07;
 446 : 18;
 447 : 69;
 448 : 04;
 449 : 8d;
 44A : 49;
 44B : 07;
 44C : ad;
 44D : 19;
 44E : 07;
 44F : 69;
 450 : 00;
 451 : 8d;
 452 : 19;
 453 : 07;
 454 : c9;
 455 : 07;
 456 : 90;
 457 : 08;
 458 : a9;
 459 : 06;
 45A : 8d;
 45B : a1;
 45C : 07;
 45D : ee;
 45E : 72;
 45F : 07;
 460 : 60;
 461 : ad;
 462 : a1;
 463 : 07;
 464 : d0;
 465 : 20;
 466 : ac;
 467 : 5f;
 468 : 07;
 469 : c0;
 46A : 07;
 46B : b0;
 46C : 1a;
 46D : a9;
 46E : 00;
 46F : 8d;
 470 : 60;
 471 : 07;
 472 : 8d;
 473 : 5c;
 474 : 07;
 475 : 8d;
 476 : 72;
 477 : 07;
 478 : ee;
 479 : 5f;
 47A : 07;
 47B : 20;
 47C : 03;
 47D : 9c;
 47E : ee;
 47F : 57;
 480 : 07;
 481 : a9;
 482 : 01;
 483 : 8d;
 484 : 70;
 485 : 07;
 486 : 60;
 487 : ad;
 488 : fc;
 489 : 06;
 48A : 0d;
 48B : fd;
 48C : 06;
 48D : 29;
 48E : 40;
 48F : f0;
 490 : 0d;
 491 : a9;
 492 : 01;
 493 : 8d;
 494 : fc;
 495 : 07;
 496 : a9;
 497 : ff;
 498 : 8d;
 499 : 5a;
 49A : 07;
 49B : 20;
 49C : 48;
 49D : 92;
 49E : 60;
 49F : ff;
 4A0 : ff;
 4A1 : f6;
 4A2 : fb;
 4A3 : f7;
 4A4 : fb;
 4A5 : f8;
 4A6 : fb;
 4A7 : f9;
 4A8 : fb;
 4A9 : fa;
 4AA : fb;
 4AB : f6;
 4AC : 50;
 4AD : f7;
 4AE : 50;
 4AF : f8;
 4B0 : 50;
 4B1 : f9;
 4B2 : 50;
 4B3 : fa;
 4B4 : 50;
 4B5 : fd;
 4B6 : fe;
 4B7 : ff;
 4B8 : 41;
 4B9 : 42;
 4BA : 44;
 4BB : 45;
 4BC : 48;
 4BD : 31;
 4BE : 32;
 4BF : 34;
 4C0 : 35;
 4C1 : 38;
 4C2 : 00;
 4C3 : bd;
 4C4 : 10;
 4C5 : 01;
 4C6 : f0;
 4C7 : be;
 4C8 : c9;
 4C9 : 0b;
 4CA : 90;
 4CB : 05;
 4CC : a9;
 4CD : 0b;
 4CE : 9d;
 4CF : 10;
 4D0 : 01;
 4D1 : a8;
 4D2 : bd;
 4D3 : 2c;
 4D4 : 01;
 4D5 : d0;
 4D6 : 04;
 4D7 : 9d;
 4D8 : 10;
 4D9 : 01;
 4DA : 60;
 4DB : de;
 4DC : 2c;
 4DD : 01;
 4DE : c9;
 4DF : 2b;
 4E0 : d0;
 4E1 : 1e;
 4E2 : c0;
 4E3 : 0b;
 4E4 : d0;
 4E5 : 07;
 4E6 : ee;
 4E7 : 5a;
 4E8 : 07;
 4E9 : a9;
 4EA : 40;
 4EB : 85;
 4EC : fe;
 4ED : b9;
 4EE : b7;
 4EF : 84;
 4F0 : 4a;
 4F1 : 4a;
 4F2 : 4a;
 4F3 : 4a;
 4F4 : aa;
 4F5 : b9;
 4F6 : b7;
 4F7 : 84;
 4F8 : 29;
 4F9 : 0f;
 4FA : 9d;
 4FB : 34;
 4FC : 01;
 4FD : 20;
 4FE : 2c;
 4FF : bc;
 500 : bc;
 501 : e5;
 502 : 06;
 503 : b5;
 504 : 16;
 505 : c9;
 506 : 12;
 507 : f0;
 508 : 22;
 509 : c9;
 50A : 0d;
 50B : f0;
 50C : 1e;
 50D : c9;
 50E : 05;
 50F : f0;
 510 : 12;
 511 : c9;
 512 : 0a;
 513 : f0;
 514 : 16;
 515 : c9;
 516 : 0b;
 517 : f0;
 518 : 12;
 519 : c9;
 51A : 09;
 51B : b0;
 51C : 06;
 51D : b5;
 51E : 1e;
 51F : c9;
 520 : 02;
 521 : b0;
 522 : 08;
 523 : ae;
 524 : ee;
 525 : 03;
 526 : bc;
 527 : ec;
 528 : 06;
 529 : a6;
 52A : 08;
 52B : bd;
 52C : 1e;
 52D : 01;
 52E : c9;
 52F : 18;
 530 : 90;
 531 : 05;
 532 : e9;
 533 : 01;
 534 : 9d;
 535 : 1e;
 536 : 01;
 537 : bd;
 538 : 1e;
 539 : 01;
 53A : e9;
 53B : 08;
 53C : 20;
 53D : c8;
 53E : e5;
 53F : bd;
 540 : 17;
 541 : 01;
 542 : 99;
 543 : 03;
 544 : 02;
 545 : 18;
 546 : 69;
 547 : 08;
 548 : 99;
 549 : 07;
 54A : 02;
 54B : a9;
 54C : 02;
 54D : 99;
 54E : 02;
 54F : 02;
 550 : 99;
 551 : 06;
 552 : 02;
 553 : bd;
 554 : 10;
 555 : 01;
 556 : 0a;
 557 : aa;
 558 : bd;
 559 : 9f;
 55A : 84;
 55B : 99;
 55C : 01;
 55D : 02;
 55E : bd;
 55F : a0;
 560 : 84;
 561 : 99;
 562 : 05;
 563 : 02;
 564 : a6;
 565 : 08;
 566 : 60;
 567 : ad;
 568 : 3c;
 569 : 07;
 56A : 20;
 56B : 04;
 56C : 8e;
 56D : 8b;
 56E : 85;
 56F : 9b;
 570 : 85;
 571 : 52;
 572 : 86;
 573 : 5a;
 574 : 86;
 575 : 93;
 576 : 86;
 577 : 9d;
 578 : 88;
 579 : a8;
 57A : 86;
 57B : 9d;
 57C : 88;
 57D : e6;
 57E : 86;
 57F : bf;
 580 : 85;
 581 : e3;
 582 : 85;
 583 : 43;
 584 : 86;
 585 : ff;
 586 : 86;
 587 : 32;
 588 : 87;
 589 : 49;
 58A : 87;
 58B : 20;
 58C : 20;
 58D : 82;
 58E : 20;
 58F : 19;
 590 : 8e;
 591 : ad;
 592 : 70;
 593 : 07;
 594 : f0;
 595 : 32;
 596 : a2;
 597 : 03;
 598 : 4c;
 599 : c5;
 59A : 85;
 59B : ad;
 59C : 44;
 59D : 07;
 59E : 48;
 59F : ad;
 5A0 : 56;
 5A1 : 07;
 5A2 : 48;
 5A3 : a9;
 5A4 : 00;
 5A5 : 8d;
 5A6 : 56;
 5A7 : 07;
 5A8 : a9;
 5A9 : 02;
 5AA : 8d;
 5AB : 44;
 5AC : 07;
 5AD : 20;
 5AE : f1;
 5AF : 85;
 5B0 : 68;
 5B1 : 8d;
 5B2 : 56;
 5B3 : 07;
 5B4 : 68;
 5B5 : 8d;
 5B6 : 44;
 5B7 : 07;
 5B8 : 4c;
 5B9 : 45;
 5BA : 87;
 5BB : 01;
 5BC : 02;
 5BD : 03;
 5BE : 04;
 5BF : ac;
 5C0 : 4e;
 5C1 : 07;
 5C2 : be;
 5C3 : bb;
 5C4 : 85;
 5C5 : 8e;
 5C6 : 73;
 5C7 : 07;
 5C8 : 4c;
 5C9 : 45;
 5CA : 87;
 5CB : 00;
 5CC : 09;
 5CD : 0a;
 5CE : 04;
 5CF : 22;
 5D0 : 22;
 5D1 : 0f;
 5D2 : 0f;
 5D3 : 0f;
 5D4 : 22;
 5D5 : 0f;
 5D6 : 0f;
 5D7 : 22;
 5D8 : 16;
 5D9 : 27;
 5DA : 18;
 5DB : 22;
 5DC : 30;
 5DD : 27;
 5DE : 19;
 5DF : 22;
 5E0 : 37;
 5E1 : 27;
 5E2 : 16;
 5E3 : ac;
 5E4 : 44;
 5E5 : 07;
 5E6 : f0;
 5E7 : 06;
 5E8 : b9;
 5E9 : c7;
 5EA : 85;
 5EB : 8d;
 5EC : 73;
 5ED : 07;
 5EE : ee;
 5EF : 3c;
 5F0 : 07;
 5F1 : ae;
 5F2 : 00;
 5F3 : 03;
 5F4 : a0;
 5F5 : 00;
 5F6 : ad;
 5F7 : 53;
 5F8 : 07;
 5F9 : f0;
 5FA : 02;
 5FB : a0;
 5FC : 04;
 5FD : ad;
 5FE : 56;
 5FF : 07;
 600 : c9;
 601 : 02;
 602 : d0;
 603 : 02;
 604 : a0;
 605 : 08;
 606 : a9;
 607 : 03;
 608 : 85;
 609 : 00;
 60A : b9;
 60B : d7;
 60C : 85;
 60D : 9d;
 60E : 04;
 60F : 03;
 610 : c8;
 611 : e8;
 612 : c6;
 613 : 00;
 614 : 10;
 615 : f4;
 616 : ae;
 617 : 00;
 618 : 03;
 619 : ac;
 61A : 44;
 61B : 07;
 61C : d0;
 61D : 03;
 61E : ac;
 61F : 4e;
 620 : 07;
 621 : b9;
 622 : cf;
 623 : 85;
 624 : 9d;
 625 : 04;
 626 : 03;
 627 : a9;
 628 : 3f;
 629 : 9d;
 62A : 01;
 62B : 03;
 62C : a9;
 62D : 10;
 62E : 9d;
 62F : 02;
 630 : 03;
 631 : a9;
 632 : 04;
 633 : 9d;
 634 : 03;
 635 : 03;
 636 : a9;
 637 : 00;
 638 : 9d;
 639 : 08;
 63A : 03;
 63B : 8a;
 63C : 18;
 63D : 69;
 63E : 07;
 63F : 8d;
 640 : 00;
 641 : 03;
 642 : 60;
 643 : ad;
 644 : 33;
 645 : 07;
 646 : c9;
 647 : 01;
 648 : d0;
 649 : 05;
 64A : a9;
 64B : 0b;
 64C : 8d;
 64D : 73;
 64E : 07;
 64F : 4c;
 650 : 45;
 651 : 87;
 652 : a9;
 653 : 00;
 654 : 20;
 655 : 08;
 656 : 88;
 657 : 4c;
 658 : 45;
 659 : 87;
 65A : 20;
 65B : 35;
 65C : bc;
 65D : ae;
 65E : 00;
 65F : 03;
 660 : a9;
 661 : 20;
 662 : 9d;
 663 : 01;
 664 : 03;
 665 : a9;
 666 : 73;
 667 : 9d;
 668 : 02;
 669 : 03;
 66A : a9;
 66B : 03;
 66C : 9d;
 66D : 03;
 66E : 03;
 66F : ac;
 670 : 5f;
 671 : 07;
 672 : c8;
 673 : 98;
 674 : 9d;
 675 : 04;
 676 : 03;
 677 : a9;
 678 : 28;
 679 : 9d;
 67A : 05;
 67B : 03;
 67C : ac;
 67D : 5c;
 67E : 07;
 67F : c8;
 680 : 98;
 681 : 9d;
 682 : 06;
 683 : 03;
 684 : a9;
 685 : 00;
 686 : 9d;
 687 : 07;
 688 : 03;
 689 : 8a;
 68A : 18;
 68B : 69;
 68C : 06;
 68D : 8d;
 68E : 00;
 68F : 03;
 690 : 4c;
 691 : 45;
 692 : 87;
 693 : ad;
 694 : 59;
 695 : 07;
 696 : f0;
 697 : 0a;
 698 : a9;
 699 : 00;
 69A : 8d;
 69B : 59;
 69C : 07;
 69D : a9;
 69E : 02;
 69F : 4c;
 6A0 : c7;
 6A1 : 86;
 6A2 : ee;
 6A3 : 3c;
 6A4 : 07;
 6A5 : 4c;
 6A6 : 45;
 6A7 : 87;
 6A8 : ad;
 6A9 : 70;
 6AA : 07;
 6AB : f0;
 6AC : 33;
 6AD : c9;
 6AE : 03;
 6AF : f0;
 6B0 : 22;
 6B1 : ad;
 6B2 : 52;
 6B3 : 07;
 6B4 : d0;
 6B5 : 2a;
 6B6 : ac;
 6B7 : 4e;
 6B8 : 07;
 6B9 : c0;
 6BA : 03;
 6BB : f0;
 6BC : 05;
 6BD : ad;
 6BE : 69;
 6BF : 07;
 6C0 : d0;
 6C1 : 1e;
 6C2 : 20;
 6C3 : ab;
 6C4 : ef;
 6C5 : a9;
 6C6 : 01;
 6C7 : 20;
 6C8 : 08;
 6C9 : 88;
 6CA : 20;
 6CB : a5;
 6CC : 88;
 6CD : a9;
 6CE : 00;
 6CF : 8d;
 6D0 : 74;
 6D1 : 07;
 6D2 : 60;
 6D3 : a9;
 6D4 : 12;
 6D5 : 8d;
 6D6 : a0;
 6D7 : 07;
 6D8 : a9;
 6D9 : 03;
 6DA : 20;
 6DB : 08;
 6DC : 88;
 6DD : 4c;
 6DE : 4e;
 6DF : 87;
 6E0 : a9;
 6E1 : 08;
 6E2 : 8d;
 6E3 : 3c;
 6E4 : 07;
 6E5 : 60;
 6E6 : ee;
 6E7 : 74;
 6E8 : 07;
 6E9 : 20;
 6EA : b0;
 6EB : 92;
 6EC : ad;
 6ED : 1f;
 6EE : 07;
 6EF : d0;
 6F0 : f8;
 6F1 : ce;
 6F2 : 1e;
 6F3 : 07;
 6F4 : 10;
 6F5 : 03;
 6F6 : ee;
 6F7 : 3c;
 6F8 : 07;
 6F9 : a9;
 6FA : 06;
 6FB : 8d;
 6FC : 73;
 6FD : 07;
 6FE : 60;
 6FF : ad;
 700 : 70;
 701 : 07;
 702 : d0;
 703 : 4a;
 704 : a9;
 705 : 1e;
 706 : 8d;
 707 : 06;
 708 : 20;
 709 : a9;
 70A : c0;
 70B : 8d;
 70C : 06;
 70D : 20;
 70E : a9;
 70F : 03;
 710 : 85;
 711 : 01;
 712 : a0;
 713 : 00;
 714 : 84;
 715 : 00;
 716 : ad;
 717 : 07;
 718 : 20;
 719 : ad;
 71A : 07;
 71B : 20;
 71C : 91;
 71D : 00;
 71E : c8;
 71F : d0;
 720 : 02;
 721 : e6;
 722 : 01;
 723 : a5;
 724 : 01;
 725 : c9;
 726 : 04;
 727 : d0;
 728 : f0;
 729 : c0;
 72A : 3a;
 72B : 90;
 72C : ec;
 72D : a9;
 72E : 05;
 72F : 4c;
 730 : 4c;
 731 : 86;
 732 : ad;
 733 : 70;
 734 : 07;
 735 : d0;
 736 : 17;
 737 : a2;
 738 : 00;
 739 : 9d;
 73A : 00;
 73B : 03;
 73C : 9d;
 73D : 00;
 73E : 04;
 73F : ca;
 740 : d0;
 741 : f7;
 742 : 20;
 743 : 25;
 744 : 83;
 745 : ee;
 746 : 3c;
 747 : 07;
 748 : 60;
 749 : a9;
 74A : fa;
 74B : 20;
 74C : 3b;
 74D : bc;
 74E : ee;
 74F : 72;
 750 : 07;
 751 : 60;
 752 : 20;
 753 : 43;
 754 : 05;
 755 : 16;
 756 : 0a;
 757 : 1b;
 758 : 12;
 759 : 18;
 75A : 20;
 75B : 52;
 75C : 0b;
 75D : 20;
 75E : 18;
 75F : 1b;
 760 : 15;
 761 : 0d;
 762 : 24;
 763 : 24;
 764 : 1d;
 765 : 12;
 766 : 16;
 767 : 0e;
 768 : 20;
 769 : 68;
 76A : 05;
 76B : 00;
 76C : 24;
 76D : 24;
 76E : 2e;
 76F : 29;
 770 : 23;
 771 : c0;
 772 : 7f;
 773 : aa;
 774 : 23;
 775 : c2;
 776 : 01;
 777 : ea;
 778 : ff;
 779 : 21;
 77A : cd;
 77B : 07;
 77C : 24;
 77D : 24;
 77E : 29;
 77F : 24;
 780 : 24;
 781 : 24;
 782 : 24;
 783 : 21;
 784 : 4b;
 785 : 09;
 786 : 20;
 787 : 18;
 788 : 1b;
 789 : 15;
 78A : 0d;
 78B : 24;
 78C : 24;
 78D : 28;
 78E : 24;
 78F : 22;
 790 : 0c;
 791 : 47;
 792 : 24;
 793 : 23;
 794 : dc;
 795 : 01;
 796 : ba;
 797 : ff;
 798 : 21;
 799 : cd;
 79A : 05;
 79B : 16;
 79C : 0a;
 79D : 1b;
 79E : 12;
 79F : 18;
 7A0 : 22;
 7A1 : 0c;
 7A2 : 07;
 7A3 : 1d;
 7A4 : 12;
 7A5 : 16;
 7A6 : 0e;
 7A7 : 24;
 7A8 : 1e;
 7A9 : 19;
 7AA : ff;
 7AB : 21;
 7AC : cd;
 7AD : 05;
 7AE : 16;
 7AF : 0a;
 7B0 : 1b;
 7B1 : 12;
 7B2 : 18;
 7B3 : 22;
 7B4 : 0b;
 7B5 : 09;
 7B6 : 10;
 7B7 : 0a;
 7B8 : 16;
 7B9 : 0e;
 7BA : 24;
 7BB : 18;
 7BC : 1f;
 7BD : 0e;
 7BE : 1b;
 7BF : ff;
 7C0 : 25;
 7C1 : 84;
 7C2 : 15;
 7C3 : 20;
 7C4 : 0e;
 7C5 : 15;
 7C6 : 0c;
 7C7 : 18;
 7C8 : 16;
 7C9 : 0e;
 7CA : 24;
 7CB : 1d;
 7CC : 18;
 7CD : 24;
 7CE : 20;
 7CF : 0a;
 7D0 : 1b;
 7D1 : 19;
 7D2 : 24;
 7D3 : 23;
 7D4 : 18;
 7D5 : 17;
 7D6 : 0e;
 7D7 : 2b;
 7D8 : 26;
 7D9 : 25;
 7DA : 01;
 7DB : 24;
 7DC : 26;
 7DD : 2d;
 7DE : 01;
 7DF : 24;
 7E0 : 26;
 7E1 : 35;
 7E2 : 01;
 7E3 : 24;
 7E4 : 27;
 7E5 : d9;
 7E6 : 46;
 7E7 : aa;
 7E8 : 27;
 7E9 : e1;
 7EA : 45;
 7EB : aa;
 7EC : ff;
 7ED : 15;
 7EE : 1e;
 7EF : 12;
 7F0 : 10;
 7F1 : 12;
 7F2 : 04;
 7F3 : 03;
 7F4 : 02;
 7F5 : 00;
 7F6 : 24;
 7F7 : 05;
 7F8 : 24;
 7F9 : 00;
 7FA : 08;
 7FB : 07;
 7FC : 06;
 7FD : 00;
 7FE : 00;
 7FF : 00;
 800 : 27;
 801 : 27;
 802 : 46;
 803 : 4e;
 804 : 59;
 805 : 61;
 806 : 6e;
 807 : 6e;
 808 : 48;
 809 : 0a;
 80A : a8;
 80B : c0;
 80C : 04;
 80D : 90;
 80E : 0c;
 80F : c0;
 810 : 08;
 811 : 90;
 812 : 02;
 813 : a0;
 814 : 08;
 815 : ad;
 816 : 7a;
 817 : 07;
 818 : d0;
 819 : 01;
 81A : c8;
 81B : be;
 81C : fe;
 81D : 87;
 81E : a0;
 81F : 00;
 820 : bd;
 821 : 52;
 822 : 87;
 823 : c9;
 824 : ff;
 825 : f0;
 826 : 07;
 827 : 99;
 828 : 01;
 829 : 03;
 82A : e8;
 82B : c8;
 82C : d0;
 82D : f2;
 82E : a9;
 82F : 00;
 830 : 99;
 831 : 01;
 832 : 03;
 833 : 68;
 834 : aa;
 835 : c9;
 836 : 04;
 837 : b0;
 838 : 49;
 839 : ca;
 83A : d0;
 83B : 23;
 83C : ad;
 83D : 5a;
 83E : 07;
 83F : 18;
 840 : 69;
 841 : 01;
 842 : c9;
 843 : 0a;
 844 : 90;
 845 : 07;
 846 : e9;
 847 : 0a;
 848 : a0;
 849 : 9f;
 84A : 8c;
 84B : 08;
 84C : 03;
 84D : 8d;
 84E : 09;
 84F : 03;
 850 : ac;
 851 : 5f;
 852 : 07;
 853 : c8;
 854 : 8c;
 855 : 14;
 856 : 03;
 857 : ac;
 858 : 5c;
 859 : 07;
 85A : c8;
 85B : 8c;
 85C : 16;
 85D : 03;
 85E : 60;
 85F : ad;
 860 : 7a;
 861 : 07;
 862 : f0;
 863 : 1d;
 864 : ad;
 865 : 53;
 866 : 07;
 867 : ca;
 868 : d0;
 869 : 09;
 86A : ac;
 86B : 70;
 86C : 07;
 86D : c0;
 86E : 03;
 86F : f0;
 870 : 02;
 871 : 49;
 872 : 01;
 873 : 4a;
 874 : 90;
 875 : 0b;
 876 : a0;
 877 : 04;
 878 : b9;
 879 : ed;
 87A : 87;
 87B : 99;
 87C : 04;
 87D : 03;
 87E : 88;
 87F : 10;
 880 : f7;
 881 : 60;
 882 : e9;
 883 : 04;
 884 : 0a;
 885 : 0a;
 886 : aa;
 887 : a0;
 888 : 00;
 889 : bd;
 88A : f2;
 88B : 87;
 88C : 99;
 88D : 1c;
 88E : 03;
 88F : e8;
 890 : c8;
 891 : c8;
 892 : c8;
 893 : c8;
 894 : c0;
 895 : 0c;
 896 : 90;
 897 : f1;
 898 : a9;
 899 : 2c;
 89A : 4c;
 89B : 3f;
 89C : 86;
 89D : ad;
 89E : a0;
 89F : 07;
 8A0 : d0;
 8A1 : 0b;
 8A2 : 20;
 8A3 : 20;
 8A4 : 82;
 8A5 : a9;
 8A6 : 07;
 8A7 : 8d;
 8A8 : a0;
 8A9 : 07;
 8AA : ee;
 8AB : 3c;
 8AC : 07;
 8AD : 60;
 8AE : ad;
 8AF : 26;
 8B0 : 07;
 8B1 : 29;
 8B2 : 01;
 8B3 : 85;
 8B4 : 05;
 8B5 : ac;
 8B6 : 40;
 8B7 : 03;
 8B8 : 84;
 8B9 : 00;
 8BA : ad;
 8BB : 21;
 8BC : 07;
 8BD : 99;
 8BE : 42;
 8BF : 03;
 8C0 : ad;
 8C1 : 20;
 8C2 : 07;
 8C3 : 99;
 8C4 : 41;
 8C5 : 03;
 8C6 : a9;
 8C7 : 9a;
 8C8 : 99;
 8C9 : 43;
 8CA : 03;
 8CB : a9;
 8CC : 00;
 8CD : 85;
 8CE : 04;
 8CF : aa;
 8D0 : 86;
 8D1 : 01;
 8D2 : bd;
 8D3 : a1;
 8D4 : 06;
 8D5 : 29;
 8D6 : c0;
 8D7 : 85;
 8D8 : 03;
 8D9 : 0a;
 8DA : 2a;
 8DB : 2a;
 8DC : a8;
 8DD : b9;
 8DE : 08;
 8DF : 8b;
 8E0 : 85;
 8E1 : 06;
 8E2 : b9;
 8E3 : 0c;
 8E4 : 8b;
 8E5 : 85;
 8E6 : 07;
 8E7 : bd;
 8E8 : a1;
 8E9 : 06;
 8EA : 0a;
 8EB : 0a;
 8EC : 85;
 8ED : 02;
 8EE : ad;
 8EF : 1f;
 8F0 : 07;
 8F1 : 29;
 8F2 : 01;
 8F3 : 49;
 8F4 : 01;
 8F5 : 0a;
 8F6 : 65;
 8F7 : 02;
 8F8 : a8;
 8F9 : a6;
 8FA : 00;
 8FB : b1;
 8FC : 06;
 8FD : 9d;
 8FE : 44;
 8FF : 03;
 900 : c8;
 901 : b1;
 902 : 06;
 903 : 9d;
 904 : 45;
 905 : 03;
 906 : a4;
 907 : 04;
 908 : a5;
 909 : 05;
 90A : d0;
 90B : 0e;
 90C : a5;
 90D : 01;
 90E : 4a;
 90F : b0;
 910 : 19;
 911 : 26;
 912 : 03;
 913 : 26;
 914 : 03;
 915 : 26;
 916 : 03;
 917 : 4c;
 918 : 30;
 919 : 89;
 91A : a5;
 91B : 01;
 91C : 4a;
 91D : b0;
 91E : 0f;
 91F : 46;
 920 : 03;
 921 : 46;
 922 : 03;
 923 : 46;
 924 : 03;
 925 : 46;
 926 : 03;
 927 : 4c;
 928 : 30;
 929 : 89;
 92A : 46;
 92B : 03;
 92C : 46;
 92D : 03;
 92E : e6;
 92F : 04;
 930 : b9;
 931 : f9;
 932 : 03;
 933 : 05;
 934 : 03;
 935 : 99;
 936 : f9;
 937 : 03;
 938 : e6;
 939 : 00;
 93A : e6;
 93B : 00;
 93C : a6;
 93D : 01;
 93E : e8;
 93F : e0;
 940 : 0d;
 941 : 90;
 942 : 8d;
 943 : a4;
 944 : 00;
 945 : c8;
 946 : c8;
 947 : c8;
 948 : a9;
 949 : 00;
 94A : 99;
 94B : 41;
 94C : 03;
 94D : 8c;
 94E : 40;
 94F : 03;
 950 : ee;
 951 : 21;
 952 : 07;
 953 : ad;
 954 : 21;
 955 : 07;
 956 : 29;
 957 : 1f;
 958 : d0;
 959 : 0d;
 95A : a9;
 95B : 80;
 95C : 8d;
 95D : 21;
 95E : 07;
 95F : ad;
 960 : 20;
 961 : 07;
 962 : 49;
 963 : 04;
 964 : 8d;
 965 : 20;
 966 : 07;
 967 : 4c;
 968 : bd;
 969 : 89;
 96A : ad;
 96B : 21;
 96C : 07;
 96D : 29;
 96E : 1f;
 96F : 38;
 970 : e9;
 971 : 04;
 972 : 29;
 973 : 1f;
 974 : 85;
 975 : 01;
 976 : ad;
 977 : 20;
 978 : 07;
 979 : b0;
 97A : 02;
 97B : 49;
 97C : 04;
 97D : 29;
 97E : 04;
 97F : 09;
 980 : 23;
 981 : 85;
 982 : 00;
 983 : a5;
 984 : 01;
 985 : 4a;
 986 : 4a;
 987 : 69;
 988 : c0;
 989 : 85;
 98A : 01;
 98B : a2;
 98C : 00;
 98D : ac;
 98E : 40;
 98F : 03;
 990 : a5;
 991 : 00;
 992 : 99;
 993 : 41;
 994 : 03;
 995 : a5;
 996 : 01;
 997 : 18;
 998 : 69;
 999 : 08;
 99A : 99;
 99B : 42;
 99C : 03;
 99D : 85;
 99E : 01;
 99F : bd;
 9A0 : f9;
 9A1 : 03;
 9A2 : 99;
 9A3 : 44;
 9A4 : 03;
 9A5 : a9;
 9A6 : 01;
 9A7 : 99;
 9A8 : 43;
 9A9 : 03;
 9AA : 4a;
 9AB : 9d;
 9AC : f9;
 9AD : 03;
 9AE : c8;
 9AF : c8;
 9B0 : c8;
 9B1 : c8;
 9B2 : e8;
 9B3 : e0;
 9B4 : 07;
 9B5 : 90;
 9B6 : d9;
 9B7 : 99;
 9B8 : 41;
 9B9 : 03;
 9BA : 8c;
 9BB : 40;
 9BC : 03;
 9BD : a9;
 9BE : 06;
 9BF : 8d;
 9C0 : 73;
 9C1 : 07;
 9C2 : 60;
 9C3 : 27;
 9C4 : 27;
 9C5 : 27;
 9C6 : 17;
 9C7 : 07;
 9C8 : 17;
 9C9 : 3f;
 9CA : 0c;
 9CB : 04;
 9CC : ff;
 9CD : ff;
 9CE : ff;
 9CF : ff;
 9D0 : 00;
 9D1 : 0f;
 9D2 : 07;
 9D3 : 12;
 9D4 : 0f;
 9D5 : 0f;
 9D6 : 07;
 9D7 : 17;
 9D8 : 0f;
 9D9 : 0f;
 9DA : 07;
 9DB : 17;
 9DC : 1c;
 9DD : 0f;
 9DE : 07;
 9DF : 17;
 9E0 : 00;
 9E1 : a5;
 9E2 : 09;
 9E3 : 29;
 9E4 : 07;
 9E5 : d0;
 9E6 : 51;
 9E7 : ae;
 9E8 : 00;
 9E9 : 03;
 9EA : e0;
 9EB : 31;
 9EC : b0;
 9ED : 4a;
 9EE : a8;
 9EF : b9;
 9F0 : c9;
 9F1 : 89;
 9F2 : 9d;
 9F3 : 01;
 9F4 : 03;
 9F5 : e8;
 9F6 : c8;
 9F7 : c0;
 9F8 : 08;
 9F9 : 90;
 9FA : f4;
 9FB : ae;
 9FC : 00;
 9FD : 03;
 9FE : a9;
 9FF : 03;
 A00 : 85;
 A01 : 00;
 A02 : ad;
 A03 : 4e;
 A04 : 07;
 A05 : 0a;
 A06 : 0a;
 A07 : a8;
 A08 : b9;
 A09 : d1;
 A0A : 89;
 A0B : 9d;
 A0C : 04;
 A0D : 03;
 A0E : c8;
 A0F : e8;
 A10 : c6;
 A11 : 00;
 A12 : 10;
 A13 : f4;
 A14 : ae;
 A15 : 00;
 A16 : 03;
 A17 : ac;
 A18 : d4;
 A19 : 06;
 A1A : b9;
 A1B : c3;
 A1C : 89;
 A1D : 9d;
 A1E : 05;
 A1F : 03;
 A20 : ad;
 A21 : 00;
 A22 : 03;
 A23 : 18;
 A24 : 69;
 A25 : 07;
 A26 : 8d;
 A27 : 00;
 A28 : 03;
 A29 : ee;
 A2A : d4;
 A2B : 06;
 A2C : ad;
 A2D : d4;
 A2E : 06;
 A2F : c9;
 A30 : 06;
 A31 : 90;
 A32 : 05;
 A33 : a9;
 A34 : 00;
 A35 : 8d;
 A36 : d4;
 A37 : 06;
 A38 : 60;
 A39 : 45;
 A3A : 45;
 A3B : 47;
 A3C : 47;
 A3D : 47;
 A3E : 47;
 A3F : 47;
 A40 : 47;
 A41 : 57;
 A42 : 58;
 A43 : 59;
 A44 : 5a;
 A45 : 24;
 A46 : 24;
 A47 : 24;
 A48 : 24;
 A49 : 26;
 A4A : 26;
 A4B : 26;
 A4C : 26;
 A4D : a0;
 A4E : 41;
 A4F : a9;
 A50 : 03;
 A51 : ae;
 A52 : 4e;
 A53 : 07;
 A54 : d0;
 A55 : 02;
 A56 : a9;
 A57 : 04;
 A58 : 20;
 A59 : 97;
 A5A : 8a;
 A5B : a9;
 A5C : 06;
 A5D : 8d;
 A5E : 73;
 A5F : 07;
 A60 : 60;
 A61 : 20;
 A62 : 6d;
 A63 : 8a;
 A64 : ee;
 A65 : f0;
 A66 : 03;
 A67 : de;
 A68 : ec;
 A69 : 03;
 A6A : 60;
 A6B : a9;
 A6C : 00;
 A6D : a0;
 A6E : 03;
 A6F : c9;
 A70 : 00;
 A71 : f0;
 A72 : 14;
 A73 : a0;
 A74 : 00;
 A75 : c9;
 A76 : 58;
 A77 : f0;
 A78 : 0e;
 A79 : c9;
 A7A : 51;
 A7B : f0;
 A7C : 0a;
 A7D : c8;
 A7E : c9;
 A7F : 5d;
 A80 : f0;
 A81 : 05;
 A82 : c9;
 A83 : 52;
 A84 : f0;
 A85 : 01;
 A86 : c8;
 A87 : 98;
 A88 : ac;
 A89 : 00;
 A8A : 03;
 A8B : c8;
 A8C : 20;
 A8D : 97;
 A8E : 8a;
 A8F : 88;
 A90 : 98;
 A91 : 18;
 A92 : 69;
 A93 : 0a;
 A94 : 4c;
 A95 : 3f;
 A96 : 86;
 A97 : 86;
 A98 : 00;
 A99 : 84;
 A9A : 01;
 A9B : 0a;
 A9C : 0a;
 A9D : aa;
 A9E : a0;
 A9F : 20;
 AA0 : a5;
 AA1 : 06;
 AA2 : c9;
 AA3 : d0;
 AA4 : 90;
 AA5 : 02;
 AA6 : a0;
 AA7 : 24;
 AA8 : 84;
 AA9 : 03;
 AAA : 29;
 AAB : 0f;
 AAC : 0a;
 AAD : 85;
 AAE : 04;
 AAF : a9;
 AB0 : 00;
 AB1 : 85;
 AB2 : 05;
 AB3 : a5;
 AB4 : 02;
 AB5 : 18;
 AB6 : 69;
 AB7 : 20;
 AB8 : 0a;
 AB9 : 26;
 ABA : 05;
 ABB : 0a;
 ABC : 26;
 ABD : 05;
 ABE : 65;
 ABF : 04;
 AC0 : 85;
 AC1 : 04;
 AC2 : a5;
 AC3 : 05;
 AC4 : 69;
 AC5 : 00;
 AC6 : 18;
 AC7 : 65;
 AC8 : 03;
 AC9 : 85;
 ACA : 05;
 ACB : a4;
 ACC : 01;
 ACD : bd;
 ACE : 39;
 ACF : 8a;
 AD0 : 99;
 AD1 : 03;
 AD2 : 03;
 AD3 : bd;
 AD4 : 3a;
 AD5 : 8a;
 AD6 : 99;
 AD7 : 04;
 AD8 : 03;
 AD9 : bd;
 ADA : 3b;
 ADB : 8a;
 ADC : 99;
 ADD : 08;
 ADE : 03;
 ADF : bd;
 AE0 : 3c;
 AE1 : 8a;
 AE2 : 99;
 AE3 : 09;
 AE4 : 03;
 AE5 : a5;
 AE6 : 04;
 AE7 : 99;
 AE8 : 01;
 AE9 : 03;
 AEA : 18;
 AEB : 69;
 AEC : 20;
 AED : 99;
 AEE : 06;
 AEF : 03;
 AF0 : a5;
 AF1 : 05;
 AF2 : 99;
 AF3 : 00;
 AF4 : 03;
 AF5 : 99;
 AF6 : 05;
 AF7 : 03;
 AF8 : a9;
 AF9 : 02;
 AFA : 99;
 AFB : 02;
 AFC : 03;
 AFD : 99;
 AFE : 07;
 AFF : 03;
 B00 : a9;
 B01 : 00;
 B02 : 99;
 B03 : 0a;
 B04 : 03;
 B05 : a6;
 B06 : 00;
 B07 : 60;
 B08 : 10;
 B09 : ac;
 B0A : 64;
 B0B : 8c;
 B0C : 8b;
 B0D : 8b;
 B0E : 8c;
 B0F : 8c;
 B10 : 24;
 B11 : 24;
 B12 : 24;
 B13 : 24;
 B14 : 27;
 B15 : 27;
 B16 : 27;
 B17 : 27;
 B18 : 24;
 B19 : 24;
 B1A : 24;
 B1B : 35;
 B1C : 36;
 B1D : 25;
 B1E : 37;
 B1F : 25;
 B20 : 24;
 B21 : 38;
 B22 : 24;
 B23 : 24;
 B24 : 24;
 B25 : 30;
 B26 : 30;
 B27 : 26;
 B28 : 26;
 B29 : 26;
 B2A : 34;
 B2B : 26;
 B2C : 24;
 B2D : 31;
 B2E : 24;
 B2F : 32;
 B30 : 33;
 B31 : 26;
 B32 : 24;
 B33 : 33;
 B34 : 34;
 B35 : 26;
 B36 : 26;
 B37 : 26;
 B38 : 26;
 B39 : 26;
 B3A : 26;
 B3B : 26;
 B3C : 24;
 B3D : c0;
 B3E : 24;
 B3F : c0;
 B40 : 24;
 B41 : 7f;
 B42 : 7f;
 B43 : 24;
 B44 : b8;
 B45 : ba;
 B46 : b9;
 B47 : bb;
 B48 : b8;
 B49 : bc;
 B4A : b9;
 B4B : bd;
 B4C : ba;
 B4D : bc;
 B4E : bb;
 B4F : bd;
 B50 : 60;
 B51 : 64;
 B52 : 61;
 B53 : 65;
 B54 : 62;
 B55 : 66;
 B56 : 63;
 B57 : 67;
 B58 : 60;
 B59 : 64;
 B5A : 61;
 B5B : 65;
 B5C : 62;
 B5D : 66;
 B5E : 63;
 B5F : 67;
 B60 : 68;
 B61 : 68;
 B62 : 69;
 B63 : 69;
 B64 : 26;
 B65 : 26;
 B66 : 6a;
 B67 : 6a;
 B68 : 4b;
 B69 : 4c;
 B6A : 4d;
 B6B : 4e;
 B6C : 4d;
 B6D : 4f;
 B6E : 4d;
 B6F : 4f;
 B70 : 4d;
 B71 : 4e;
 B72 : 50;
 B73 : 51;
 B74 : 6b;
 B75 : 70;
 B76 : 2c;
 B77 : 2d;
 B78 : 6c;
 B79 : 71;
 B7A : 6d;
 B7B : 72;
 B7C : 6e;
 B7D : 73;
 B7E : 6f;
 B7F : 74;
 B80 : 86;
 B81 : 8a;
 B82 : 87;
 B83 : 8b;
 B84 : 88;
 B85 : 8c;
 B86 : 88;
 B87 : 8c;
 B88 : 89;
 B89 : 8d;
 B8A : 69;
 B8B : 69;
 B8C : 8e;
 B8D : 91;
 B8E : 8f;
 B8F : 92;
 B90 : 26;
 B91 : 93;
 B92 : 26;
 B93 : 93;
 B94 : 90;
 B95 : 94;
 B96 : 69;
 B97 : 69;
 B98 : a4;
 B99 : e9;
 B9A : ea;
 B9B : eb;
 B9C : 24;
 B9D : 24;
 B9E : 24;
 B9F : 24;
 BA0 : 24;
 BA1 : 2f;
 BA2 : 24;
 BA3 : 3d;
 BA4 : a2;
 BA5 : a2;
 BA6 : a3;
 BA7 : a3;
 BA8 : 24;
 BA9 : 24;
 BAA : 24;
 BAB : 24;
 BAC : a2;
 BAD : a2;
 BAE : a3;
 BAF : a3;
 BB0 : 99;
 BB1 : 24;
 BB2 : 99;
 BB3 : 24;
 BB4 : 24;
 BB5 : a2;
 BB6 : 3e;
 BB7 : 3f;
 BB8 : 5b;
 BB9 : 5c;
 BBA : 24;
 BBB : a3;
 BBC : 24;
 BBD : 24;
 BBE : 24;
 BBF : 24;
 BC0 : 9d;
 BC1 : 47;
 BC2 : 9e;
 BC3 : 47;
 BC4 : 47;
 BC5 : 47;
 BC6 : 27;
 BC7 : 27;
 BC8 : 47;
 BC9 : 47;
 BCA : 47;
 BCB : 47;
 BCC : 27;
 BCD : 27;
 BCE : 47;
 BCF : 47;
 BD0 : a9;
 BD1 : 47;
 BD2 : aa;
 BD3 : 47;
 BD4 : 9b;
 BD5 : 27;
 BD6 : 9c;
 BD7 : 27;
 BD8 : 27;
 BD9 : 27;
 BDA : 27;
 BDB : 27;
 BDC : 52;
 BDD : 52;
 BDE : 52;
 BDF : 52;
 BE0 : 80;
 BE1 : a0;
 BE2 : 81;
 BE3 : a1;
 BE4 : be;
 BE5 : be;
 BE6 : bf;
 BE7 : bf;
 BE8 : 75;
 BE9 : ba;
 BEA : 76;
 BEB : bb;
 BEC : ba;
 BED : ba;
 BEE : bb;
 BEF : bb;
 BF0 : 45;
 BF1 : 47;
 BF2 : 45;
 BF3 : 47;
 BF4 : 47;
 BF5 : 47;
 BF6 : 47;
 BF7 : 47;
 BF8 : 45;
 BF9 : 47;
 BFA : 45;
 BFB : 47;
 BFC : b4;
 BFD : b6;
 BFE : b5;
 BFF : b7;
 C00 : 45;
 C01 : 47;
 C02 : 45;
 C03 : 47;
 C04 : 45;
 C05 : 47;
 C06 : 45;
 C07 : 47;
 C08 : 45;
 C09 : 47;
 C0A : 45;
 C0B : 47;
 C0C : 45;
 C0D : 47;
 C0E : 45;
 C0F : 47;
 C10 : 45;
 C11 : 47;
 C12 : 45;
 C13 : 47;
 C14 : 47;
 C15 : 47;
 C16 : 47;
 C17 : 47;
 C18 : 47;
 C19 : 47;
 C1A : 47;
 C1B : 47;
 C1C : 47;
 C1D : 47;
 C1E : 47;
 C1F : 47;
 C20 : 47;
 C21 : 47;
 C22 : 47;
 C23 : 47;
 C24 : 47;
 C25 : 47;
 C26 : 47;
 C27 : 47;
 C28 : 24;
 C29 : 24;
 C2A : 24;
 C2B : 24;
 C2C : 24;
 C2D : 24;
 C2E : 24;
 C2F : 24;
 C30 : ab;
 C31 : ac;
 C32 : ad;
 C33 : ae;
 C34 : 5d;
 C35 : 5e;
 C36 : 5d;
 C37 : 5e;
 C38 : c1;
 C39 : 24;
 C3A : c1;
 C3B : 24;
 C3C : c6;
 C3D : c8;
 C3E : c7;
 C3F : c9;
 C40 : ca;
 C41 : cc;
 C42 : cb;
 C43 : cd;
 C44 : 2a;
 C45 : 2a;
 C46 : 40;
 C47 : 40;
 C48 : 24;
 C49 : 24;
 C4A : 24;
 C4B : 24;
 C4C : 24;
 C4D : 47;
 C4E : 24;
 C4F : 47;
 C50 : 82;
 C51 : 83;
 C52 : 84;
 C53 : 85;
 C54 : 24;
 C55 : 47;
 C56 : 24;
 C57 : 47;
 C58 : 86;
 C59 : 8a;
 C5A : 87;
 C5B : 8b;
 C5C : 8e;
 C5D : 91;
 C5E : 8f;
 C5F : 92;
 C60 : 24;
 C61 : 2f;
 C62 : 24;
 C63 : 3d;
 C64 : 24;
 C65 : 24;
 C66 : 24;
 C67 : 35;
 C68 : 36;
 C69 : 25;
 C6A : 37;
 C6B : 25;
 C6C : 24;
 C6D : 38;
 C6E : 24;
 C6F : 24;
 C70 : 24;
 C71 : 24;
 C72 : 39;
 C73 : 24;
 C74 : 3a;
 C75 : 24;
 C76 : 3b;
 C77 : 24;
 C78 : 3c;
 C79 : 24;
 C7A : 24;
 C7B : 24;
 C7C : 41;
 C7D : 26;
 C7E : 41;
 C7F : 26;
 C80 : 26;
 C81 : 26;
 C82 : 26;
 C83 : 26;
 C84 : b0;
 C85 : b1;
 C86 : b2;
 C87 : b3;
 C88 : 77;
 C89 : 79;
 C8A : 77;
 C8B : 79;
 C8C : 53;
 C8D : 55;
 C8E : 54;
 C8F : 56;
 C90 : 53;
 C91 : 55;
 C92 : 54;
 C93 : 56;
 C94 : a5;
 C95 : a7;
 C96 : a6;
 C97 : a8;
 C98 : c2;
 C99 : c4;
 C9A : c3;
 C9B : c5;
 C9C : 57;
 C9D : 59;
 C9E : 58;
 C9F : 5a;
 CA0 : 7b;
 CA1 : 7d;
 CA2 : 7c;
 CA3 : 7e;
 CA4 : 3f;
 CA5 : 00;
 CA6 : 20;
 CA7 : 0f;
 CA8 : 15;
 CA9 : 12;
 CAA : 25;
 CAB : 0f;
 CAC : 3a;
 CAD : 1a;
 CAE : 0f;
 CAF : 0f;
 CB0 : 30;
 CB1 : 12;
 CB2 : 0f;
 CB3 : 0f;
 CB4 : 27;
 CB5 : 12;
 CB6 : 0f;
 CB7 : 22;
 CB8 : 16;
 CB9 : 27;
 CBA : 18;
 CBB : 0f;
 CBC : 10;
 CBD : 30;
 CBE : 27;
 CBF : 0f;
 CC0 : 16;
 CC1 : 30;
 CC2 : 27;
 CC3 : 0f;
 CC4 : 0f;
 CC5 : 30;
 CC6 : 10;
 CC7 : 00;
 CC8 : 3f;
 CC9 : 00;
 CCA : 20;
 CCB : 0f;
 CCC : 29;
 CCD : 1a;
 CCE : 0f;
 CCF : 0f;
 CD0 : 36;
 CD1 : 17;
 CD2 : 0f;
 CD3 : 0f;
 CD4 : 30;
 CD5 : 21;
 CD6 : 0f;
 CD7 : 0f;
 CD8 : 27;
 CD9 : 17;
 CDA : 0f;
 CDB : 0f;
 CDC : 16;
 CDD : 27;
 CDE : 18;
 CDF : 0f;
 CE0 : 1a;
 CE1 : 30;
 CE2 : 27;
 CE3 : 0f;
 CE4 : 16;
 CE5 : 30;
 CE6 : 27;
 CE7 : 0f;
 CE8 : 0f;
 CE9 : 36;
 CEA : 17;
 CEB : 00;
 CEC : 3f;
 CED : 00;
 CEE : 20;
 CEF : 0f;
 CF0 : 29;
 CF1 : 1a;
 CF2 : 09;
 CF3 : 0f;
 CF4 : 3c;
 CF5 : 1c;
 CF6 : 0f;
 CF7 : 0f;
 CF8 : 30;
 CF9 : 21;
 CFA : 1c;
 CFB : 0f;
 CFC : 27;
 CFD : 17;
 CFE : 1c;
 CFF : 0f;
 D00 : 16;
 D01 : 27;
 D02 : 18;
 D03 : 0f;
 D04 : 1c;
 D05 : 36;
 D06 : 17;
 D07 : 0f;
 D08 : 16;
 D09 : 30;
 D0A : 27;
 D0B : 0f;
 D0C : 0c;
 D0D : 3c;
 D0E : 1c;
 D0F : 00;
 D10 : 3f;
 D11 : 00;
 D12 : 20;
 D13 : 0f;
 D14 : 30;
 D15 : 10;
 D16 : 00;
 D17 : 0f;
 D18 : 30;
 D19 : 10;
 D1A : 00;
 D1B : 0f;
 D1C : 30;
 D1D : 16;
 D1E : 00;
 D1F : 0f;
 D20 : 27;
 D21 : 17;
 D22 : 00;
 D23 : 0f;
 D24 : 16;
 D25 : 27;
 D26 : 18;
 D27 : 0f;
 D28 : 1c;
 D29 : 36;
 D2A : 17;
 D2B : 0f;
 D2C : 16;
 D2D : 30;
 D2E : 27;
 D2F : 0f;
 D30 : 00;
 D31 : 30;
 D32 : 10;
 D33 : 00;
 D34 : 3f;
 D35 : 00;
 D36 : 04;
 D37 : 22;
 D38 : 30;
 D39 : 00;
 D3A : 10;
 D3B : 00;
 D3C : 3f;
 D3D : 00;
 D3E : 04;
 D3F : 0f;
 D40 : 30;
 D41 : 00;
 D42 : 10;
 D43 : 00;
 D44 : 3f;
 D45 : 00;
 D46 : 04;
 D47 : 22;
 D48 : 27;
 D49 : 16;
 D4A : 0f;
 D4B : 00;
 D4C : 3f;
 D4D : 14;
 D4E : 04;
 D4F : 0f;
 D50 : 1a;
 D51 : 30;
 D52 : 27;
 D53 : 00;
 D54 : 25;
 D55 : 48;
 D56 : 10;
 D57 : 1d;
 D58 : 11;
 D59 : 0a;
 D5A : 17;
 D5B : 14;
 D5C : 24;
 D5D : 22;
 D5E : 18;
 D5F : 1e;
 D60 : 24;
 D61 : 16;
 D62 : 0a;
 D63 : 1b;
 D64 : 12;
 D65 : 18;
 D66 : 2b;
 D67 : 00;
 D68 : 25;
 D69 : 48;
 D6A : 10;
 D6B : 1d;
 D6C : 11;
 D6D : 0a;
 D6E : 17;
 D6F : 14;
 D70 : 24;
 D71 : 22;
 D72 : 18;
 D73 : 1e;
 D74 : 24;
 D75 : 15;
 D76 : 1e;
 D77 : 12;
 D78 : 10;
 D79 : 12;
 D7A : 2b;
 D7B : 00;
 D7C : 25;
 D7D : c5;
 D7E : 16;
 D7F : 0b;
 D80 : 1e;
 D81 : 1d;
 D82 : 24;
 D83 : 18;
 D84 : 1e;
 D85 : 1b;
 D86 : 24;
 D87 : 19;
 D88 : 1b;
 D89 : 12;
 D8A : 17;
 D8B : 0c;
 D8C : 0e;
 D8D : 1c;
 D8E : 1c;
 D8F : 24;
 D90 : 12;
 D91 : 1c;
 D92 : 24;
 D93 : 12;
 D94 : 17;
 D95 : 26;
 D96 : 05;
 D97 : 0f;
 D98 : 0a;
 D99 : 17;
 D9A : 18;
 D9B : 1d;
 D9C : 11;
 D9D : 0e;
 D9E : 1b;
 D9F : 24;
 DA0 : 0c;
 DA1 : 0a;
 DA2 : 1c;
 DA3 : 1d;
 DA4 : 15;
 DA5 : 0e;
 DA6 : 2b;
 DA7 : 00;
 DA8 : 25;
 DA9 : a7;
 DAA : 13;
 DAB : 22;
 DAC : 18;
 DAD : 1e;
 DAE : 1b;
 DAF : 24;
 DB0 : 1a;
 DB1 : 1e;
 DB2 : 0e;
 DB3 : 1c;
 DB4 : 1d;
 DB5 : 24;
 DB6 : 12;
 DB7 : 1c;
 DB8 : 24;
 DB9 : 18;
 DBA : 1f;
 DBB : 0e;
 DBC : 1b;
 DBD : af;
 DBE : 00;
 DBF : 25;
 DC0 : e3;
 DC1 : 1b;
 DC2 : 20;
 DC3 : 0e;
 DC4 : 24;
 DC5 : 19;
 DC6 : 1b;
 DC7 : 0e;
 DC8 : 1c;
 DC9 : 0e;
 DCA : 17;
 DCB : 1d;
 DCC : 24;
 DCD : 22;
 DCE : 18;
 DCF : 1e;
 DD0 : 24;
 DD1 : 0a;
 DD2 : 24;
 DD3 : 17;
 DD4 : 0e;
 DD5 : 20;
 DD6 : 24;
 DD7 : 1a;
 DD8 : 1e;
 DD9 : 0e;
 DDA : 1c;
 DDB : 1d;
 DDC : af;
 DDD : 00;
 DDE : 26;
 DDF : 4a;
 DE0 : 0d;
 DE1 : 19;
 DE2 : 1e;
 DE3 : 1c;
 DE4 : 11;
 DE5 : 24;
 DE6 : 0b;
 DE7 : 1e;
 DE8 : 1d;
 DE9 : 1d;
 DEA : 18;
 DEB : 17;
 DEC : 24;
 DED : 0b;
 DEE : 00;
 DEF : 26;
 DF0 : 88;
 DF1 : 11;
 DF2 : 1d;
 DF3 : 18;
 DF4 : 24;
 DF5 : 1c;
 DF6 : 0e;
 DF7 : 15;
 DF8 : 0e;
 DF9 : 0c;
 DFA : 1d;
 DFB : 24;
 DFC : 0a;
 DFD : 24;
 DFE : 20;
 DFF : 18;
 E00 : 1b;
 E01 : 15;
 E02 : 0d;
 E03 : 00;
 E04 : 0a;
 E05 : a8;
 E06 : 68;
 E07 : 85;
 E08 : 04;
 E09 : 68;
 E0A : 85;
 E0B : 05;
 E0C : c8;
 E0D : b1;
 E0E : 04;
 E0F : 85;
 E10 : 06;
 E11 : c8;
 E12 : b1;
 E13 : 04;
 E14 : 85;
 E15 : 07;
 E16 : 6c;
 E17 : 06;
 E18 : 00;
 E19 : ad;
 E1A : 02;
 E1B : 20;
 E1C : ad;
 E1D : 78;
 E1E : 07;
 E1F : 09;
 E20 : 10;
 E21 : 29;
 E22 : f0;
 E23 : 20;
 E24 : ed;
 E25 : 8e;
 E26 : a9;
 E27 : 24;
 E28 : 20;
 E29 : 2d;
 E2A : 8e;
 E2B : a9;
 E2C : 20;
 E2D : 8d;
 E2E : 06;
 E2F : 20;
 E30 : a9;
 E31 : 00;
 E32 : 8d;
 E33 : 06;
 E34 : 20;
 E35 : a2;
 E36 : 04;
 E37 : a0;
 E38 : c0;
 E39 : a9;
 E3A : 24;
 E3B : 8d;
 E3C : 07;
 E3D : 20;
 E3E : 88;
 E3F : d0;
 E40 : fa;
 E41 : ca;
 E42 : d0;
 E43 : f7;
 E44 : a0;
 E45 : 40;
 E46 : 8a;
 E47 : 8d;
 E48 : 00;
 E49 : 03;
 E4A : 8d;
 E4B : 01;
 E4C : 03;
 E4D : 8d;
 E4E : 07;
 E4F : 20;
 E50 : 88;
 E51 : d0;
 E52 : fa;
 E53 : 8d;
 E54 : 3f;
 E55 : 07;
 E56 : 8d;
 E57 : 40;
 E58 : 07;
 E59 : 4c;
 E5A : e6;
 E5B : 8e;
 E5C : a9;
 E5D : 01;
 E5E : 8d;
 E5F : 16;
 E60 : 40;
 E61 : 4a;
 E62 : aa;
 E63 : 8d;
 E64 : 16;
 E65 : 40;
 E66 : 20;
 E67 : 6a;
 E68 : 8e;
 E69 : e8;
 E6A : a0;
 E6B : 08;
 E6C : 48;
 E6D : bd;
 E6E : 16;
 E6F : 40;
 E70 : 85;
 E71 : 00;
 E72 : 4a;
 E73 : 05;
 E74 : 00;
 E75 : 4a;
 E76 : 68;
 E77 : 2a;
 E78 : 88;
 E79 : d0;
 E7A : f1;
 E7B : 9d;
 E7C : fc;
 E7D : 06;
 E7E : 48;
 E7F : 29;
 E80 : 30;
 E81 : 3d;
 E82 : 4a;
 E83 : 07;
 E84 : f0;
 E85 : 07;
 E86 : 68;
 E87 : 29;
 E88 : cf;
 E89 : 9d;
 E8A : fc;
 E8B : 06;
 E8C : 60;
 E8D : 68;
 E8E : 9d;
 E8F : 4a;
 E90 : 07;
 E91 : 60;
 E92 : 8d;
 E93 : 06;
 E94 : 20;
 E95 : c8;
 E96 : b1;
 E97 : 00;
 E98 : 8d;
 E99 : 06;
 E9A : 20;
 E9B : c8;
 E9C : b1;
 E9D : 00;
 E9E : 0a;
 E9F : 48;
 EA0 : ad;
 EA1 : 78;
 EA2 : 07;
 EA3 : 09;
 EA4 : 04;
 EA5 : b0;
 EA6 : 02;
 EA7 : 29;
 EA8 : fb;
 EA9 : 20;
 EAA : ed;
 EAB : 8e;
 EAC : 68;
 EAD : 0a;
 EAE : 90;
 EAF : 03;
 EB0 : 09;
 EB1 : 02;
 EB2 : c8;
 EB3 : 4a;
 EB4 : 4a;
 EB5 : aa;
 EB6 : b0;
 EB7 : 01;
 EB8 : c8;
 EB9 : b1;
 EBA : 00;
 EBB : 8d;
 EBC : 07;
 EBD : 20;
 EBE : ca;
 EBF : d0;
 EC0 : f5;
 EC1 : 38;
 EC2 : 98;
 EC3 : 65;
 EC4 : 00;
 EC5 : 85;
 EC6 : 00;
 EC7 : a9;
 EC8 : 00;
 EC9 : 65;
 ECA : 01;
 ECB : 85;
 ECC : 01;
 ECD : a9;
 ECE : 3f;
 ECF : 8d;
 ED0 : 06;
 ED1 : 20;
 ED2 : a9;
 ED3 : 00;
 ED4 : 8d;
 ED5 : 06;
 ED6 : 20;
 ED7 : 8d;
 ED8 : 06;
 ED9 : 20;
 EDA : 8d;
 EDB : 06;
 EDC : 20;
 EDD : ae;
 EDE : 02;
 EDF : 20;
 EE0 : a0;
 EE1 : 00;
 EE2 : b1;
 EE3 : 00;
 EE4 : d0;
 EE5 : ac;
 EE6 : 8d;
 EE7 : 05;
 EE8 : 20;
 EE9 : 8d;
 EEA : 05;
 EEB : 20;
 EEC : 60;
 EED : 8d;
 EEE : 00;
 EEF : 20;
 EF0 : 8d;
 EF1 : 78;
 EF2 : 07;
 EF3 : 60;
 EF4 : f0;
 EF5 : 06;
 EF6 : 62;
 EF7 : 06;
 EF8 : 62;
 EF9 : 06;
 EFA : 6d;
 EFB : 02;
 EFC : 6d;
 EFD : 02;
 EFE : 7a;
 EFF : 03;
 F00 : 06;
 F01 : 0c;
 F02 : 12;
 F03 : 18;
 F04 : 1e;
 F05 : 24;
 F06 : 85;
 F07 : 00;
 F08 : 20;
 F09 : 11;
 F0A : 8f;
 F0B : a5;
 F0C : 00;
 F0D : 4a;
 F0E : 4a;
 F0F : 4a;
 F10 : 4a;
 F11 : 18;
 F12 : 69;
 F13 : 01;
 F14 : 29;
 F15 : 0f;
 F16 : c9;
 F17 : 06;
 F18 : b0;
 F19 : 44;
 F1A : 48;
 F1B : 0a;
 F1C : a8;
 F1D : ae;
 F1E : 00;
 F1F : 03;
 F20 : a9;
 F21 : 20;
 F22 : c0;
 F23 : 00;
 F24 : d0;
 F25 : 02;
 F26 : a9;
 F27 : 22;
 F28 : 9d;
 F29 : 01;
 F2A : 03;
 F2B : b9;
 F2C : f4;
 F2D : 8e;
 F2E : 9d;
 F2F : 02;
 F30 : 03;
 F31 : b9;
 F32 : f5;
 F33 : 8e;
 F34 : 9d;
 F35 : 03;
 F36 : 03;
 F37 : 85;
 F38 : 03;
 F39 : 86;
 F3A : 02;
 F3B : 68;
 F3C : aa;
 F3D : bd;
 F3E : 00;
 F3F : 8f;
 F40 : 38;
 F41 : f9;
 F42 : f5;
 F43 : 8e;
 F44 : a8;
 F45 : a6;
 F46 : 02;
 F47 : b9;
 F48 : d7;
 F49 : 07;
 F4A : 9d;
 F4B : 04;
 F4C : 03;
 F4D : e8;
 F4E : c8;
 F4F : c6;
 F50 : 03;
 F51 : d0;
 F52 : f4;
 F53 : a9;
 F54 : 00;
 F55 : 9d;
 F56 : 04;
 F57 : 03;
 F58 : e8;
 F59 : e8;
 F5A : e8;
 F5B : 8e;
 F5C : 00;
 F5D : 03;
 F5E : 60;
 F5F : ad;
 F60 : 70;
 F61 : 07;
 F62 : c9;
 F63 : 00;
 F64 : f0;
 F65 : 16;
 F66 : a2;
 F67 : 05;
 F68 : bd;
 F69 : 34;
 F6A : 01;
 F6B : 18;
 F6C : 79;
 F6D : d7;
 F6E : 07;
 F6F : 30;
 F70 : 16;
 F71 : c9;
 F72 : 0a;
 F73 : b0;
 F74 : 19;
 F75 : 99;
 F76 : d7;
 F77 : 07;
 F78 : 88;
 F79 : ca;
 F7A : 10;
 F7B : ec;
 F7C : a9;
 F7D : 00;
 F7E : a2;
 F7F : 06;
 F80 : 9d;
 F81 : 33;
 F82 : 01;
 F83 : ca;
 F84 : 10;
 F85 : fa;
 F86 : 60;
 F87 : de;
 F88 : 33;
 F89 : 01;
 F8A : a9;
 F8B : 09;
 F8C : d0;
 F8D : e7;
 F8E : 38;
 F8F : e9;
 F90 : 0a;
 F91 : fe;
 F92 : 33;
 F93 : 01;
 F94 : 4c;
 F95 : 75;
 F96 : 8f;
 F97 : a2;
 F98 : 05;
 F99 : 20;
 F9A : 9e;
 F9B : 8f;
 F9C : a2;
 F9D : 0b;
 F9E : a0;
 F9F : 05;
 FA0 : 38;
 FA1 : bd;
 FA2 : dd;
 FA3 : 07;
 FA4 : f9;
 FA5 : d7;
 FA6 : 07;
 FA7 : ca;
 FA8 : 88;
 FA9 : 10;
 FAA : f6;
 FAB : 90;
 FAC : 0e;
 FAD : e8;
 FAE : c8;
 FAF : bd;
 FB0 : dd;
 FB1 : 07;
 FB2 : 99;
 FB3 : d7;
 FB4 : 07;
 FB5 : e8;
 FB6 : c8;
 FB7 : c0;
 FB8 : 06;
 FB9 : 90;
 FBA : f4;
 FBB : 60;
 FBC : 04;
 FBD : 30;
 FBE : 48;
 FBF : 60;
 FC0 : 78;
 FC1 : 90;
 FC2 : a8;
 FC3 : c0;
 FC4 : d8;
 FC5 : e8;
 FC6 : 24;
 FC7 : f8;
 FC8 : fc;
 FC9 : 28;
 FCA : 2c;
 FCB : 18;
 FCC : ff;
 FCD : 23;
 FCE : 58;
 FCF : a0;
 FD0 : 6f;
 FD1 : 20;
 FD2 : cc;
 FD3 : 90;
 FD4 : a0;
 FD5 : 1f;
 FD6 : 99;
 FD7 : b0;
 FD8 : 07;
 FD9 : 88;
 FDA : 10;
 FDB : fa;
 FDC : a9;
 FDD : 18;
 FDE : 8d;
 FDF : a2;
 FE0 : 07;
 FE1 : 20;
 FE2 : 03;
 FE3 : 9c;
 FE4 : a0;
 FE5 : 4b;
 FE6 : 20;
 FE7 : cc;
 FE8 : 90;
 FE9 : a2;
 FEA : 21;
 FEB : a9;
 FEC : 00;
 FED : 9d;
 FEE : 80;
 FEF : 07;
 FF0 : ca;
 FF1 : 10;
 FF2 : fa;
 FF3 : ad;
 FF4 : 5b;
 FF5 : 07;
 FF6 : ac;
 FF7 : 52;
 FF8 : 07;
 FF9 : f0;
 FFA : 03;
 FFB : ad;
 FFC : 51;
 FFD : 07;
 FFE : 8d;
 FFF : 1a;
1000 : 07;
1001 : 8d;
1002 : 25;
1003 : 07;
1004 : 8d;
1005 : 28;
1006 : 07;
1007 : 20;
1008 : 38;
1009 : b0;
100A : a0;
100B : 20;
100C : 29;
100D : 01;
100E : f0;
100F : 02;
1010 : a0;
1011 : 24;
1012 : 8c;
1013 : 20;
1014 : 07;
1015 : a0;
1016 : 80;
1017 : 8c;
1018 : 21;
1019 : 07;
101A : 0a;
101B : 0a;
101C : 0a;
101D : 0a;
101E : 8d;
101F : a0;
1020 : 06;
1021 : ce;
1022 : 30;
1023 : 07;
1024 : ce;
1025 : 31;
1026 : 07;
1027 : ce;
1028 : 32;
1029 : 07;
102A : a9;
102B : 0b;
102C : 8d;
102D : 1e;
102E : 07;
102F : 20;
1030 : 22;
1031 : 9c;
1032 : ad;
1033 : 6a;
1034 : 07;
1035 : d0;
1036 : 10;
1037 : ad;
1038 : 5f;
1039 : 07;
103A : c9;
103B : 04;
103C : 90;
103D : 0c;
103E : d0;
103F : 07;
1040 : ad;
1041 : 5c;
1042 : 07;
1043 : c9;
1044 : 02;
1045 : 90;
1046 : 03;
1047 : ee;
1048 : cc;
1049 : 06;
104A : ad;
104B : 5b;
104C : 07;
104D : f0;
104E : 05;
104F : a9;
1050 : 02;
1051 : 8d;
1052 : 10;
1053 : 07;
1054 : a9;
1055 : 80;
1056 : 85;
1057 : fb;
1058 : a9;
1059 : 01;
105A : 8d;
105B : 74;
105C : 07;
105D : ee;
105E : 72;
105F : 07;
1060 : 60;
1061 : a9;
1062 : 01;
1063 : 8d;
1064 : 57;
1065 : 07;
1066 : 8d;
1067 : 54;
1068 : 07;
1069 : a9;
106A : 02;
106B : 8d;
106C : 5a;
106D : 07;
106E : 8d;
106F : 61;
1070 : 07;
1071 : a9;
1072 : 00;
1073 : 8d;
1074 : 74;
1075 : 07;
1076 : a8;
1077 : 99;
1078 : 00;
1079 : 03;
107A : c8;
107B : d0;
107C : fa;
107D : 8d;
107E : 59;
107F : 07;
1080 : 8d;
1081 : 69;
1082 : 07;
1083 : 8d;
1084 : 28;
1085 : 07;
1086 : a9;
1087 : ff;
1088 : 8d;
1089 : a0;
108A : 03;
108B : ad;
108C : 1a;
108D : 07;
108E : 4e;
108F : 78;
1090 : 07;
1091 : 29;
1092 : 01;
1093 : 6a;
1094 : 2e;
1095 : 78;
1096 : 07;
1097 : 20;
1098 : ed;
1099 : 90;
109A : a9;
109B : 38;
109C : 8d;
109D : e3;
109E : 06;
109F : a9;
10A0 : 48;
10A1 : 8d;
10A2 : e2;
10A3 : 06;
10A4 : a9;
10A5 : 58;
10A6 : 8d;
10A7 : e1;
10A8 : 06;
10A9 : a2;
10AA : 0e;
10AB : bd;
10AC : bc;
10AD : 8f;
10AE : 9d;
10AF : e4;
10B0 : 06;
10B1 : ca;
10B2 : 10;
10B3 : f7;
10B4 : a0;
10B5 : 03;
10B6 : b9;
10B7 : cb;
10B8 : 8f;
10B9 : 99;
10BA : 00;
10BB : 02;
10BC : 88;
10BD : 10;
10BE : f7;
10BF : 20;
10C0 : af;
10C1 : 92;
10C2 : 20;
10C3 : aa;
10C4 : 92;
10C5 : ee;
10C6 : 22;
10C7 : 07;
10C8 : ee;
10C9 : 72;
10CA : 07;
10CB : 60;
10CC : a2;
10CD : 07;
10CE : a9;
10CF : 00;
10D0 : 85;
10D1 : 06;
10D2 : 86;
10D3 : 07;
10D4 : e0;
10D5 : 01;
10D6 : d0;
10D7 : 04;
10D8 : c0;
10D9 : 60;
10DA : b0;
10DB : 02;
10DC : 91;
10DD : 06;
10DE : 88;
10DF : c0;
10E0 : ff;
10E1 : d0;
10E2 : f1;
10E3 : ca;
10E4 : 10;
10E5 : ec;
10E6 : 60;
10E7 : 02;
10E8 : 01;
10E9 : 04;
10EA : 08;
10EB : 10;
10EC : 20;
10ED : ad;
10EE : 70;
10EF : 07;
10F0 : f0;
10F1 : 23;
10F2 : ad;
10F3 : 52;
10F4 : 07;
10F5 : c9;
10F6 : 02;
10F7 : f0;
10F8 : 0d;
10F9 : a0;
10FA : 05;
10FB : ad;
10FC : 10;
10FD : 07;
10FE : c9;
10FF : 06;
1100 : f0;
1101 : 0e;
1102 : c9;
1103 : 07;
1104 : f0;
1105 : 0a;
1106 : ac;
1107 : 4e;
1108 : 07;
1109 : ad;
110A : 43;
110B : 07;
110C : f0;
110D : 02;
110E : a0;
110F : 04;
1110 : b9;
1111 : e7;
1112 : 90;
1113 : 85;
1114 : fb;
1115 : 60;
1116 : 28;
1117 : 18;
1118 : 38;
1119 : 28;
111A : 08;
111B : 00;
111C : 00;
111D : 20;
111E : b0;
111F : 50;
1120 : 00;
1121 : 00;
1122 : b0;
1123 : b0;
1124 : f0;
1125 : 00;
1126 : 20;
1127 : 00;
1128 : 00;
1129 : 00;
112A : 00;
112B : 00;
112C : 00;
112D : 20;
112E : 04;
112F : 03;
1130 : 02;
1131 : ad;
1132 : 1a;
1133 : 07;
1134 : 85;
1135 : 6d;
1136 : a9;
1137 : 70;
1138 : 8d;
1139 : 0a;
113A : 07;
113B : a9;
113C : 01;
113D : 85;
113E : 33;
113F : 85;
1140 : b5;
1141 : a9;
1142 : 00;
1143 : 85;
1144 : 1d;
1145 : ce;
1146 : 90;
1147 : 04;
1148 : a0;
1149 : 00;
114A : 8c;
114B : 5b;
114C : 07;
114D : ad;
114E : 4e;
114F : 07;
1150 : d0;
1151 : 01;
1152 : c8;
1153 : 8c;
1154 : 04;
1155 : 07;
1156 : ae;
1157 : 10;
1158 : 07;
1159 : ac;
115A : 52;
115B : 07;
115C : f0;
115D : 07;
115E : c0;
115F : 01;
1160 : f0;
1161 : 03;
1162 : be;
1163 : 18;
1164 : 91;
1165 : b9;
1166 : 16;
1167 : 91;
1168 : 85;
1169 : 86;
116A : bd;
116B : 1c;
116C : 91;
116D : 85;
116E : ce;
116F : bd;
1170 : 25;
1171 : 91;
1172 : 8d;
1173 : c4;
1174 : 03;
1175 : 20;
1176 : f1;
1177 : 85;
1178 : ac;
1179 : 15;
117A : 07;
117B : f0;
117C : 1a;
117D : ad;
117E : 57;
117F : 07;
1180 : f0;
1181 : 15;
1182 : b9;
1183 : 2d;
1184 : 91;
1185 : 8d;
1186 : f8;
1187 : 07;
1188 : a9;
1189 : 01;
118A : 8d;
118B : fa;
118C : 07;
118D : 4a;
118E : 8d;
118F : f9;
1190 : 07;
1191 : 8d;
1192 : 57;
1193 : 07;
1194 : 8d;
1195 : 9f;
1196 : 07;
1197 : ac;
1198 : 58;
1199 : 07;
119A : f0;
119B : 14;
119C : a9;
119D : 03;
119E : 85;
119F : 1d;
11A0 : a2;
11A1 : 00;
11A2 : 20;
11A3 : 89;
11A4 : bd;
11A5 : a9;
11A6 : f0;
11A7 : 85;
11A8 : d7;
11A9 : a2;
11AA : 05;
11AB : a0;
11AC : 00;
11AD : 20;
11AE : 23;
11AF : b9;
11B0 : ac;
11B1 : 4e;
11B2 : 07;
11B3 : d0;
11B4 : 03;
11B5 : 20;
11B6 : 0b;
11B7 : b7;
11B8 : a9;
11B9 : 07;
11BA : 85;
11BB : 0e;
11BC : 60;
11BD : 56;
11BE : 40;
11BF : 65;
11C0 : 70;
11C1 : 66;
11C2 : 40;
11C3 : 66;
11C4 : 40;
11C5 : 66;
11C6 : 40;
11C7 : 66;
11C8 : 60;
11C9 : 65;
11CA : 70;
11CB : 00;
11CC : 00;
11CD : ee;
11CE : 74;
11CF : 07;
11D0 : a9;
11D1 : 00;
11D2 : 8d;
11D3 : 22;
11D4 : 07;
11D5 : a9;
11D6 : 80;
11D7 : 85;
11D8 : fc;
11D9 : ce;
11DA : 5a;
11DB : 07;
11DC : 10;
11DD : 0b;
11DE : a9;
11DF : 00;
11E0 : 8d;
11E1 : 72;
11E2 : 07;
11E3 : a9;
11E4 : 03;
11E5 : 8d;
11E6 : 70;
11E7 : 07;
11E8 : 60;
11E9 : ad;
11EA : 5f;
11EB : 07;
11EC : 0a;
11ED : aa;
11EE : ad;
11EF : 5c;
11F0 : 07;
11F1 : 29;
11F2 : 02;
11F3 : f0;
11F4 : 01;
11F5 : e8;
11F6 : bc;
11F7 : bd;
11F8 : 91;
11F9 : ad;
11FA : 5c;
11FB : 07;
11FC : 4a;
11FD : 98;
11FE : b0;
11FF : 04;
1200 : 4a;
1201 : 4a;
1202 : 4a;
1203 : 4a;
1204 : 29;
1205 : 0f;
1206 : cd;
1207 : 1a;
1208 : 07;
1209 : f0;
120A : 04;
120B : 90;
120C : 02;
120D : a9;
120E : 00;
120F : 8d;
1210 : 5b;
1211 : 07;
1212 : 20;
1213 : 82;
1214 : 92;
1215 : 4c;
1216 : 64;
1217 : 92;
1218 : ad;
1219 : 72;
121A : 07;
121B : 20;
121C : 04;
121D : 8e;
121E : 24;
121F : 92;
1220 : 67;
1221 : 85;
1222 : 37;
1223 : 92;
1224 : a9;
1225 : 00;
1226 : 8d;
1227 : 3c;
1228 : 07;
1229 : 8d;
122A : 22;
122B : 07;
122C : a9;
122D : 02;
122E : 85;
122F : fc;
1230 : ee;
1231 : 74;
1232 : 07;
1233 : ee;
1234 : 72;
1235 : 07;
1236 : 60;
1237 : a9;
1238 : 00;
1239 : 8d;
123A : 74;
123B : 07;
123C : ad;
123D : fc;
123E : 06;
123F : 29;
1240 : 10;
1241 : d0;
1242 : 05;
1243 : ad;
1244 : a0;
1245 : 07;
1246 : d0;
1247 : 39;
1248 : a9;
1249 : 80;
124A : 85;
124B : fc;
124C : 20;
124D : 82;
124E : 92;
124F : 90;
1250 : 13;
1251 : ad;
1252 : 5f;
1253 : 07;
1254 : 8d;
1255 : fd;
1256 : 07;
1257 : a9;
1258 : 00;
1259 : 0a;
125A : 8d;
125B : 72;
125C : 07;
125D : 8d;
125E : a0;
125F : 07;
1260 : 8d;
1261 : 70;
1262 : 07;
1263 : 60;
1264 : 20;
1265 : 03;
1266 : 9c;
1267 : a9;
1268 : 01;
1269 : 8d;
126A : 54;
126B : 07;
126C : ee;
126D : 57;
126E : 07;
126F : a9;
1270 : 00;
1271 : 8d;
1272 : 47;
1273 : 07;
1274 : 8d;
1275 : 56;
1276 : 07;
1277 : 85;
1278 : 0e;
1279 : 8d;
127A : 72;
127B : 07;
127C : a9;
127D : 01;
127E : 8d;
127F : 70;
1280 : 07;
1281 : 60;
1282 : 38;
1283 : ad;
1284 : 7a;
1285 : 07;
1286 : f0;
1287 : 21;
1288 : ad;
1289 : 61;
128A : 07;
128B : 30;
128C : 1c;
128D : ad;
128E : 53;
128F : 07;
1290 : 49;
1291 : 01;
1292 : 8d;
1293 : 53;
1294 : 07;
1295 : a2;
1296 : 06;
1297 : bd;
1298 : 5a;
1299 : 07;
129A : 48;
129B : bd;
129C : 61;
129D : 07;
129E : 9d;
129F : 5a;
12A0 : 07;
12A1 : 68;
12A2 : 9d;
12A3 : 61;
12A4 : 07;
12A5 : ca;
12A6 : 10;
12A7 : ef;
12A8 : 18;
12A9 : 60;
12AA : a9;
12AB : ff;
12AC : 8d;
12AD : c9;
12AE : 06;
12AF : 60;
12B0 : ac;
12B1 : 1f;
12B2 : 07;
12B3 : d0;
12B4 : 05;
12B5 : a0;
12B6 : 08;
12B7 : 8c;
12B8 : 1f;
12B9 : 07;
12BA : 88;
12BB : 98;
12BC : 20;
12BD : c8;
12BE : 92;
12BF : ce;
12C0 : 1f;
12C1 : 07;
12C2 : d0;
12C3 : 03;
12C4 : 20;
12C5 : 6a;
12C6 : 89;
12C7 : 60;
12C8 : 20;
12C9 : 04;
12CA : 8e;
12CB : db;
12CC : 92;
12CD : ae;
12CE : 88;
12CF : ae;
12D0 : 88;
12D1 : fc;
12D2 : 93;
12D3 : db;
12D4 : 92;
12D5 : ae;
12D6 : 88;
12D7 : ae;
12D8 : 88;
12D9 : fc;
12DA : 93;
12DB : ee;
12DC : 26;
12DD : 07;
12DE : ad;
12DF : 26;
12E0 : 07;
12E1 : 29;
12E2 : 0f;
12E3 : d0;
12E4 : 06;
12E5 : 8d;
12E6 : 26;
12E7 : 07;
12E8 : ee;
12E9 : 25;
12EA : 07;
12EB : ee;
12EC : a0;
12ED : 06;
12EE : ad;
12EF : a0;
12F0 : 06;
12F1 : 29;
12F2 : 1f;
12F3 : 8d;
12F4 : a0;
12F5 : 06;
12F6 : 60;
12F7 : 00;
12F8 : 30;
12F9 : 60;
12FA : 93;
12FB : 00;
12FC : 00;
12FD : 11;
12FE : 12;
12FF : 12;
1300 : 13;
1301 : 00;
1302 : 00;
1303 : 51;
1304 : 52;
1305 : 53;
1306 : 00;
1307 : 00;
1308 : 00;
1309 : 00;
130A : 00;
130B : 00;
130C : 01;
130D : 02;
130E : 02;
130F : 03;
1310 : 00;
1311 : 00;
1312 : 00;
1313 : 00;
1314 : 00;
1315 : 00;
1316 : 91;
1317 : 92;
1318 : 93;
1319 : 00;
131A : 00;
131B : 00;
131C : 00;
131D : 51;
131E : 52;
131F : 53;
1320 : 41;
1321 : 42;
1322 : 43;
1323 : 00;
1324 : 00;
1325 : 00;
1326 : 00;
1327 : 00;
1328 : 91;
1329 : 92;
132A : 97;
132B : 87;
132C : 88;
132D : 89;
132E : 99;
132F : 00;
1330 : 00;
1331 : 00;
1332 : 11;
1333 : 12;
1334 : 13;
1335 : a4;
1336 : a5;
1337 : a5;
1338 : a5;
1339 : a6;
133A : 97;
133B : 98;
133C : 99;
133D : 01;
133E : 02;
133F : 03;
1340 : 00;
1341 : a4;
1342 : a5;
1343 : a6;
1344 : 00;
1345 : 11;
1346 : 12;
1347 : 12;
1348 : 12;
1349 : 13;
134A : 00;
134B : 00;
134C : 00;
134D : 00;
134E : 01;
134F : 02;
1350 : 02;
1351 : 03;
1352 : 00;
1353 : a4;
1354 : a5;
1355 : a5;
1356 : a6;
1357 : 00;
1358 : 00;
1359 : 00;
135A : 11;
135B : 12;
135C : 12;
135D : 13;
135E : 00;
135F : 00;
1360 : 00;
1361 : 00;
1362 : 00;
1363 : 00;
1364 : 00;
1365 : 9c;
1366 : 00;
1367 : 8b;
1368 : aa;
1369 : aa;
136A : aa;
136B : aa;
136C : 11;
136D : 12;
136E : 13;
136F : 8b;
1370 : 00;
1371 : 9c;
1372 : 9c;
1373 : 00;
1374 : 00;
1375 : 01;
1376 : 02;
1377 : 03;
1378 : 11;
1379 : 12;
137A : 12;
137B : 13;
137C : 00;
137D : 00;
137E : 00;
137F : 00;
1380 : aa;
1381 : aa;
1382 : 9c;
1383 : aa;
1384 : 00;
1385 : 8b;
1386 : 00;
1387 : 01;
1388 : 02;
1389 : 03;
138A : 80;
138B : 83;
138C : 00;
138D : 81;
138E : 84;
138F : 00;
1390 : 82;
1391 : 85;
1392 : 00;
1393 : 02;
1394 : 00;
1395 : 00;
1396 : 03;
1397 : 00;
1398 : 00;
1399 : 04;
139A : 00;
139B : 00;
139C : 00;
139D : 05;
139E : 06;
139F : 07;
13A0 : 06;
13A1 : 0a;
13A2 : 00;
13A3 : 08;
13A4 : 09;
13A5 : 4d;
13A6 : 00;
13A7 : 00;
13A8 : 0d;
13A9 : 0f;
13AA : 4e;
13AB : 0e;
13AC : 4e;
13AD : 4e;
13AE : 00;
13AF : 0d;
13B0 : 1a;
13B1 : 86;
13B2 : 87;
13B3 : 87;
13B4 : 87;
13B5 : 87;
13B6 : 87;
13B7 : 87;
13B8 : 87;
13B9 : 87;
13BA : 87;
13BB : 87;
13BC : 69;
13BD : 69;
13BE : 00;
13BF : 00;
13C0 : 00;
13C1 : 00;
13C2 : 00;
13C3 : 45;
13C4 : 47;
13C5 : 47;
13C6 : 47;
13C7 : 47;
13C8 : 47;
13C9 : 00;
13CA : 00;
13CB : 00;
13CC : 00;
13CD : 00;
13CE : 00;
13CF : 00;
13D0 : 00;
13D1 : 00;
13D2 : 00;
13D3 : 00;
13D4 : 00;
13D5 : 00;
13D6 : 86;
13D7 : 87;
13D8 : 69;
13D9 : 54;
13DA : 52;
13DB : 62;
13DC : 00;
13DD : 00;
13DE : 00;
13DF : 18;
13E0 : 01;
13E1 : 18;
13E2 : 07;
13E3 : 18;
13E4 : 0f;
13E5 : 18;
13E6 : ff;
13E7 : 18;
13E8 : 01;
13E9 : 1f;
13EA : 07;
13EB : 1f;
13EC : 0f;
13ED : 1f;
13EE : 81;
13EF : 1f;
13F0 : 01;
13F1 : 00;
13F2 : 8f;
13F3 : 1f;
13F4 : f1;
13F5 : 1f;
13F6 : f9;
13F7 : 18;
13F8 : f1;
13F9 : 18;
13FA : ff;
13FB : 1f;
13FC : ad;
13FD : 28;
13FE : 07;
13FF : f0;
1400 : 03;
1401 : 20;
1402 : 08;
1403 : 95;
1404 : a2;
1405 : 0c;
1406 : a9;
1407 : 00;
1408 : 9d;
1409 : a1;
140A : 06;
140B : ca;
140C : 10;
140D : fa;
140E : ac;
140F : 42;
1410 : 07;
1411 : f0;
1412 : 42;
1413 : ad;
1414 : 25;
1415 : 07;
1416 : c9;
1417 : 03;
1418 : 30;
1419 : 05;
141A : 38;
141B : e9;
141C : 03;
141D : 10;
141E : f7;
141F : 0a;
1420 : 0a;
1421 : 0a;
1422 : 0a;
1423 : 79;
1424 : f6;
1425 : 92;
1426 : 6d;
1427 : 26;
1428 : 07;
1429 : aa;
142A : bd;
142B : fa;
142C : 92;
142D : f0;
142E : 26;
142F : 48;
1430 : 29;
1431 : 0f;
1432 : 38;
1433 : e9;
1434 : 01;
1435 : 85;
1436 : 00;
1437 : 0a;
1438 : 65;
1439 : 00;
143A : aa;
143B : 68;
143C : 4a;
143D : 4a;
143E : 4a;
143F : 4a;
1440 : a8;
1441 : a9;
1442 : 03;
1443 : 85;
1444 : 00;
1445 : bd;
1446 : 8a;
1447 : 93;
1448 : 99;
1449 : a1;
144A : 06;
144B : e8;
144C : c8;
144D : c0;
144E : 0b;
144F : f0;
1450 : 04;
1451 : c6;
1452 : 00;
1453 : d0;
1454 : f0;
1455 : ae;
1456 : 41;
1457 : 07;
1458 : f0;
1459 : 13;
145A : bc;
145B : ad;
145C : 93;
145D : a2;
145E : 00;
145F : b9;
1460 : b1;
1461 : 93;
1462 : f0;
1463 : 03;
1464 : 9d;
1465 : a1;
1466 : 06;
1467 : c8;
1468 : e8;
1469 : e0;
146A : 0d;
146B : d0;
146C : f2;
146D : ac;
146E : 4e;
146F : 07;
1470 : d0;
1471 : 0c;
1472 : ad;
1473 : 5f;
1474 : 07;
1475 : c9;
1476 : 07;
1477 : d0;
1478 : 05;
1479 : a9;
147A : 62;
147B : 4c;
147C : 88;
147D : 94;
147E : b9;
147F : d8;
1480 : 93;
1481 : ac;
1482 : 43;
1483 : 07;
1484 : f0;
1485 : 02;
1486 : a9;
1487 : 88;
1488 : 85;
1489 : 07;
148A : a2;
148B : 00;
148C : ad;
148D : 27;
148E : 07;
148F : 0a;
1490 : a8;
1491 : b9;
1492 : dc;
1493 : 93;
1494 : 85;
1495 : 00;
1496 : c8;
1497 : 84;
1498 : 01;
1499 : ad;
149A : 43;
149B : 07;
149C : f0;
149D : 0a;
149E : e0;
149F : 00;
14A0 : f0;
14A1 : 06;
14A2 : a5;
14A3 : 00;
14A4 : 29;
14A5 : 08;
14A6 : 85;
14A7 : 00;
14A8 : a0;
14A9 : 00;
14AA : b9;
14AB : 90;
14AC : c6;
14AD : 24;
14AE : 00;
14AF : f0;
14B0 : 05;
14B1 : a5;
14B2 : 07;
14B3 : 9d;
14B4 : a1;
14B5 : 06;
14B6 : e8;
14B7 : e0;
14B8 : 0d;
14B9 : f0;
14BA : 18;
14BB : ad;
14BC : 4e;
14BD : 07;
14BE : c9;
14BF : 02;
14C0 : d0;
14C1 : 08;
14C2 : e0;
14C3 : 0b;
14C4 : d0;
14C5 : 04;
14C6 : a9;
14C7 : 54;
14C8 : 85;
14C9 : 07;
14CA : c8;
14CB : c0;
14CC : 08;
14CD : d0;
14CE : db;
14CF : a4;
14D0 : 01;
14D1 : d0;
14D2 : be;
14D3 : 20;
14D4 : 08;
14D5 : 95;
14D6 : ad;
14D7 : a0;
14D8 : 06;
14D9 : 20;
14DA : e3;
14DB : 9b;
14DC : a2;
14DD : 00;
14DE : a0;
14DF : 00;
14E0 : 84;
14E1 : 00;
14E2 : bd;
14E3 : a1;
14E4 : 06;
14E5 : 29;
14E6 : c0;
14E7 : 0a;
14E8 : 2a;
14E9 : 2a;
14EA : a8;
14EB : bd;
14EC : a1;
14ED : 06;
14EE : d9;
14EF : 04;
14F0 : 95;
14F1 : b0;
14F2 : 02;
14F3 : a9;
14F4 : 00;
14F5 : a4;
14F6 : 00;
14F7 : 91;
14F8 : 06;
14F9 : 98;
14FA : 18;
14FB : 69;
14FC : 10;
14FD : a8;
14FE : e8;
14FF : e0;
1500 : 0d;
1501 : 90;
1502 : dd;
1503 : 60;
1504 : 10;
1505 : 51;
1506 : 88;
1507 : c0;
1508 : a2;
1509 : 02;
150A : 86;
150B : 08;
150C : a9;
150D : 00;
150E : 8d;
150F : 29;
1510 : 07;
1511 : ac;
1512 : 2c;
1513 : 07;
1514 : b1;
1515 : e7;
1516 : c9;
1517 : fd;
1518 : f0;
1519 : 4b;
151A : bd;
151B : 30;
151C : 07;
151D : 10;
151E : 46;
151F : c8;
1520 : b1;
1521 : e7;
1522 : 0a;
1523 : 90;
1524 : 0b;
1525 : ad;
1526 : 2b;
1527 : 07;
1528 : d0;
1529 : 06;
152A : ee;
152B : 2b;
152C : 07;
152D : ee;
152E : 2a;
152F : 07;
1530 : 88;
1531 : b1;
1532 : e7;
1533 : 29;
1534 : 0f;
1535 : c9;
1536 : 0d;
1537 : d0;
1538 : 1b;
1539 : c8;
153A : b1;
153B : e7;
153C : 88;
153D : 29;
153E : 40;
153F : d0;
1540 : 1c;
1541 : ad;
1542 : 2b;
1543 : 07;
1544 : d0;
1545 : 17;
1546 : c8;
1547 : b1;
1548 : e7;
1549 : 29;
154A : 1f;
154B : 8d;
154C : 2a;
154D : 07;
154E : ee;
154F : 2b;
1550 : 07;
1551 : 4c;
1552 : 6e;
1553 : 95;
1554 : c9;
1555 : 0e;
1556 : d0;
1557 : 05;
1558 : ad;
1559 : 28;
155A : 07;
155B : d0;
155C : 08;
155D : ad;
155E : 2a;
155F : 07;
1560 : cd;
1561 : 25;
1562 : 07;
1563 : 90;
1564 : 06;
1565 : 20;
1566 : 95;
1567 : 95;
1568 : 4c;
1569 : 71;
156A : 95;
156B : ee;
156C : 29;
156D : 07;
156E : 20;
156F : 89;
1570 : 95;
1571 : a6;
1572 : 08;
1573 : bd;
1574 : 30;
1575 : 07;
1576 : 30;
1577 : 03;
1578 : de;
1579 : 30;
157A : 07;
157B : ca;
157C : 10;
157D : 8c;
157E : ad;
157F : 29;
1580 : 07;
1581 : d0;
1582 : 85;
1583 : ad;
1584 : 28;
1585 : 07;
1586 : d0;
1587 : 80;
1588 : 60;
1589 : ee;
158A : 2c;
158B : 07;
158C : ee;
158D : 2c;
158E : 07;
158F : a9;
1590 : 00;
1591 : 8d;
1592 : 2b;
1593 : 07;
1594 : 60;
1595 : bd;
1596 : 30;
1597 : 07;
1598 : 30;
1599 : 03;
159A : bc;
159B : 2d;
159C : 07;
159D : a2;
159E : 10;
159F : b1;
15A0 : e7;
15A1 : c9;
15A2 : fd;
15A3 : f0;
15A4 : e3;
15A5 : 29;
15A6 : 0f;
15A7 : c9;
15A8 : 0f;
15A9 : f0;
15AA : 08;
15AB : a2;
15AC : 08;
15AD : c9;
15AE : 0c;
15AF : f0;
15B0 : 02;
15B1 : a2;
15B2 : 00;
15B3 : 86;
15B4 : 07;
15B5 : a6;
15B6 : 08;
15B7 : c9;
15B8 : 0e;
15B9 : d0;
15BA : 08;
15BB : a9;
15BC : 00;
15BD : 85;
15BE : 07;
15BF : a9;
15C0 : 2e;
15C1 : d0;
15C2 : 53;
15C3 : c9;
15C4 : 0d;
15C5 : d0;
15C6 : 1b;
15C7 : a9;
15C8 : 22;
15C9 : 85;
15CA : 07;
15CB : c8;
15CC : b1;
15CD : e7;
15CE : 29;
15CF : 40;
15D0 : f0;
15D1 : 63;
15D2 : b1;
15D3 : e7;
15D4 : 29;
15D5 : 7f;
15D6 : c9;
15D7 : 4b;
15D8 : d0;
15D9 : 03;
15DA : ee;
15DB : 45;
15DC : 07;
15DD : 29;
15DE : 3f;
15DF : 4c;
15E0 : 16;
15E1 : 96;
15E2 : c9;
15E3 : 0c;
15E4 : b0;
15E5 : 27;
15E6 : c8;
15E7 : b1;
15E8 : e7;
15E9 : 29;
15EA : 70;
15EB : d0;
15EC : 0b;
15ED : a9;
15EE : 16;
15EF : 85;
15F0 : 07;
15F1 : b1;
15F2 : e7;
15F3 : 29;
15F4 : 0f;
15F5 : 4c;
15F6 : 16;
15F7 : 96;
15F8 : 85;
15F9 : 00;
15FA : c9;
15FB : 70;
15FC : d0;
15FD : 0a;
15FE : b1;
15FF : e7;
1600 : 29;
1601 : 08;
1602 : f0;
1603 : 04;
1604 : a9;
1605 : 00;
1606 : 85;
1607 : 00;
1608 : a5;
1609 : 00;
160A : 4c;
160B : 12;
160C : 96;
160D : c8;
160E : b1;
160F : e7;
1610 : 29;
1611 : 70;
1612 : 4a;
1613 : 4a;
1614 : 4a;
1615 : 4a;
1616 : 85;
1617 : 00;
1618 : bd;
1619 : 30;
161A : 07;
161B : 10;
161C : 42;
161D : ad;
161E : 2a;
161F : 07;
1620 : cd;
1621 : 25;
1622 : 07;
1623 : f0;
1624 : 11;
1625 : ac;
1626 : 2c;
1627 : 07;
1628 : b1;
1629 : e7;
162A : 29;
162B : 0f;
162C : c9;
162D : 0e;
162E : d0;
162F : 05;
1630 : ad;
1631 : 28;
1632 : 07;
1633 : d0;
1634 : 21;
1635 : 60;
1636 : ad;
1637 : 28;
1638 : 07;
1639 : f0;
163A : 0b;
163B : a9;
163C : 00;
163D : 8d;
163E : 28;
163F : 07;
1640 : 8d;
1641 : 29;
1642 : 07;
1643 : 85;
1644 : 08;
1645 : 60;
1646 : ac;
1647 : 2c;
1648 : 07;
1649 : b1;
164A : e7;
164B : 29;
164C : f0;
164D : 4a;
164E : 4a;
164F : 4a;
1650 : 4a;
1651 : cd;
1652 : 26;
1653 : 07;
1654 : d0;
1655 : df;
1656 : ad;
1657 : 2c;
1658 : 07;
1659 : 9d;
165A : 2d;
165B : 07;
165C : 20;
165D : 89;
165E : 95;
165F : a5;
1660 : 00;
1661 : 18;
1662 : 65;
1663 : 07;
1664 : 20;
1665 : 04;
1666 : 8e;
1667 : e5;
1668 : 98;
1669 : 40;
166A : 97;
166B : 2e;
166C : 9a;
166D : 3e;
166E : 9a;
166F : f2;
1670 : 99;
1671 : 50;
1672 : 9a;
1673 : 59;
1674 : 9a;
1675 : e5;
1676 : 98;
1677 : 43;
1678 : 9b;
1679 : ba;
167A : 97;
167B : 79;
167C : 99;
167D : 7c;
167E : 99;
167F : 7f;
1680 : 99;
1681 : 57;
1682 : 99;
1683 : 68;
1684 : 99;
1685 : 6b;
1686 : 99;
1687 : d0;
1688 : 99;
1689 : d7;
168A : 99;
168B : 06;
168C : 98;
168D : b7;
168E : 9a;
168F : ab;
1690 : 98;
1691 : 94;
1692 : 99;
1693 : 10;
1694 : 9b;
1695 : 10;
1696 : 9b;
1697 : 10;
1698 : 9b;
1699 : 03;
169A : 9b;
169B : 1b;
169C : 9b;
169D : 1b;
169E : 9b;
169F : 1b;
16A0 : 9b;
16A1 : 16;
16A2 : 9b;
16A3 : 1b;
16A4 : 9b;
16A5 : 6f;
16A6 : 98;
16A7 : 19;
16A8 : 9a;
16A9 : d3;
16AA : 9a;
16AB : 82;
16AC : 98;
16AD : 9e;
16AE : 99;
16AF : 09;
16B0 : 9a;
16B1 : 0e;
16B2 : 9a;
16B3 : 01;
16B4 : 9a;
16B5 : f2;
16B6 : 96;
16B7 : 0d;
16B8 : 97;
16B9 : 0d;
16BA : 97;
16BB : 2b;
16BC : 97;
16BD : 2b;
16BE : 97;
16BF : 2b;
16C0 : 97;
16C1 : 45;
16C2 : 96;
16C3 : c5;
16C4 : 96;
16C5 : bc;
16C6 : 2d;
16C7 : 07;
16C8 : c8;
16C9 : b1;
16CA : e7;
16CB : 48;
16CC : 29;
16CD : 40;
16CE : d0;
16CF : 12;
16D0 : 68;
16D1 : 48;
16D2 : 29;
16D3 : 0f;
16D4 : 8d;
16D5 : 27;
16D6 : 07;
16D7 : 68;
16D8 : 29;
16D9 : 30;
16DA : 4a;
16DB : 4a;
16DC : 4a;
16DD : 4a;
16DE : 8d;
16DF : 42;
16E0 : 07;
16E1 : 60;
16E2 : 68;
16E3 : 29;
16E4 : 07;
16E5 : c9;
16E6 : 04;
16E7 : 90;
16E8 : 05;
16E9 : 8d;
16EA : 44;
16EB : 07;
16EC : a9;
16ED : 00;
16EE : 8d;
16EF : 41;
16F0 : 07;
16F1 : 60;
16F2 : a2;
16F3 : 04;
16F4 : ad;
16F5 : 5f;
16F6 : 07;
16F7 : f0;
16F8 : 08;
16F9 : e8;
16FA : ac;
16FB : 4e;
16FC : 07;
16FD : 88;
16FE : d0;
16FF : 01;
1700 : e8;
1701 : 8a;
1702 : 8d;
1703 : d6;
1704 : 06;
1705 : 20;
1706 : 08;
1707 : 88;
1708 : a9;
1709 : 0d;
170A : 20;
170B : 16;
170C : 97;
170D : ad;
170E : 23;
170F : 07;
1710 : 49;
1711 : 01;
1712 : 8d;
1713 : 23;
1714 : 07;
1715 : 60;
1716 : 85;
1717 : 00;
1718 : a9;
1719 : 00;
171A : a2;
171B : 04;
171C : b4;
171D : 16;
171E : c4;
171F : 00;
1720 : d0;
1721 : 02;
1722 : 95;
1723 : 0f;
1724 : ca;
1725 : 10;
1726 : f5;
1727 : 60;
1728 : 14;
1729 : 17;
172A : 18;
172B : a6;
172C : 00;
172D : bd;
172E : 20;
172F : 97;
1730 : a0;
1731 : 05;
1732 : 88;
1733 : 30;
1734 : 07;
1735 : d9;
1736 : 16;
1737 : 00;
1738 : d0;
1739 : f8;
173A : a9;
173B : 00;
173C : 8d;
173D : cd;
173E : 06;
173F : 60;
1740 : ad;
1741 : 33;
1742 : 07;
1743 : 20;
1744 : 04;
1745 : 8e;
1746 : 4c;
1747 : 97;
1748 : 78;
1749 : 97;
174A : 69;
174B : 9a;
174C : 20;
174D : bd;
174E : 9b;
174F : bd;
1750 : 30;
1751 : 07;
1752 : f0;
1753 : 1f;
1754 : 10;
1755 : 11;
1756 : 98;
1757 : 9d;
1758 : 30;
1759 : 07;
175A : ad;
175B : 25;
175C : 07;
175D : 0d;
175E : 26;
175F : 07;
1760 : f0;
1761 : 05;
1762 : a9;
1763 : 16;
1764 : 4c;
1765 : b0;
1766 : 97;
1767 : a6;
1768 : 07;
1769 : a9;
176A : 17;
176B : 9d;
176C : a1;
176D : 06;
176E : a9;
176F : 4c;
1770 : 4c;
1771 : aa;
1772 : 97;
1773 : a9;
1774 : 18;
1775 : 4c;
1776 : b0;
1777 : 97;
1778 : 20;
1779 : ae;
177A : 9b;
177B : 84;
177C : 06;
177D : 90;
177E : 0c;
177F : bd;
1780 : 30;
1781 : 07;
1782 : 4a;
1783 : 9d;
1784 : 36;
1785 : 07;
1786 : a9;
1787 : 19;
1788 : 4c;
1789 : b0;
178A : 97;
178B : a9;
178C : 1b;
178D : bc;
178E : 30;
178F : 07;
1790 : f0;
1791 : 1e;
1792 : bd;
1793 : 36;
1794 : 07;
1795 : 85;
1796 : 06;
1797 : a6;
1798 : 07;
1799 : a9;
179A : 1a;
179B : 9d;
179C : a1;
179D : 06;
179E : c4;
179F : 06;
17A0 : d0;
17A1 : 2c;
17A2 : e8;
17A3 : a9;
17A4 : 4f;
17A5 : 9d;
17A6 : a1;
17A7 : 06;
17A8 : a9;
17A9 : 50;
17AA : e8;
17AB : a0;
17AC : 0f;
17AD : 4c;
17AE : 7f;
17AF : 9b;
17B0 : a6;
17B1 : 07;
17B2 : a0;
17B3 : 00;
17B4 : 4c;
17B5 : 7f;
17B6 : 9b;
17B7 : 42;
17B8 : 41;
17B9 : 43;
17BA : 20;
17BB : ae;
17BC : 9b;
17BD : a0;
17BE : 00;
17BF : b0;
17C0 : 07;
17C1 : c8;
17C2 : bd;
17C3 : 30;
17C4 : 07;
17C5 : d0;
17C6 : 01;
17C7 : c8;
17C8 : b9;
17C9 : b7;
17CA : 97;
17CB : 8d;
17CC : a1;
17CD : 06;
17CE : 60;
17CF : 00;
17D0 : 45;
17D1 : 45;
17D2 : 45;
17D3 : 00;
17D4 : 00;
17D5 : 48;
17D6 : 47;
17D7 : 46;
17D8 : 00;
17D9 : 45;
17DA : 49;
17DB : 49;
17DC : 49;
17DD : 45;
17DE : 47;
17DF : 47;
17E0 : 4a;
17E1 : 47;
17E2 : 47;
17E3 : 47;
17E4 : 47;
17E5 : 4b;
17E6 : 47;
17E7 : 47;
17E8 : 49;
17E9 : 49;
17EA : 49;
17EB : 49;
17EC : 49;
17ED : 47;
17EE : 4a;
17EF : 47;
17F0 : 4a;
17F1 : 47;
17F2 : 47;
17F3 : 4b;
17F4 : 47;
17F5 : 4b;
17F6 : 47;
17F7 : 47;
17F8 : 47;
17F9 : 47;
17FA : 47;
17FB : 47;
17FC : 4a;
17FD : 47;
17FE : 4a;
17FF : 47;
1800 : 4a;
1801 : 4b;
1802 : 47;
1803 : 4b;
1804 : 47;
1805 : 4b;
1806 : 20;
1807 : bd;
1808 : 9b;
1809 : 84;
180A : 07;
180B : a0;
180C : 04;
180D : 20;
180E : b1;
180F : 9b;
1810 : 8a;
1811 : 48;
1812 : bc;
1813 : 30;
1814 : 07;
1815 : a6;
1816 : 07;
1817 : a9;
1818 : 0b;
1819 : 85;
181A : 06;
181B : b9;
181C : cf;
181D : 97;
181E : 9d;
181F : a1;
1820 : 06;
1821 : e8;
1822 : a5;
1823 : 06;
1824 : f0;
1825 : 07;
1826 : c8;
1827 : c8;
1828 : c8;
1829 : c8;
182A : c8;
182B : c6;
182C : 06;
182D : e0;
182E : 0b;
182F : d0;
1830 : ea;
1831 : 68;
1832 : aa;
1833 : ad;
1834 : 25;
1835 : 07;
1836 : f0;
1837 : 36;
1838 : bd;
1839 : 30;
183A : 07;
183B : c9;
183C : 01;
183D : f0;
183E : 2a;
183F : a4;
1840 : 07;
1841 : d0;
1842 : 04;
1843 : c9;
1844 : 03;
1845 : f0;
1846 : 22;
1847 : c9;
1848 : 02;
1849 : d0;
184A : 23;
184B : 20;
184C : cd;
184D : 9b;
184E : 48;
184F : 20;
1850 : 4a;
1851 : 99;
1852 : 68;
1853 : 95;
1854 : 87;
1855 : ad;
1856 : 25;
1857 : 07;
1858 : 95;
1859 : 6e;
185A : a9;
185B : 01;
185C : 95;
185D : b6;
185E : 95;
185F : 0f;
1860 : a9;
1861 : 90;
1862 : 95;
1863 : cf;
1864 : a9;
1865 : 31;
1866 : 95;
1867 : 16;
1868 : 60;
1869 : a0;
186A : 52;
186B : 8c;
186C : ab;
186D : 06;
186E : 60;
186F : 20;
1870 : bd;
1871 : 9b;
1872 : bc;
1873 : 30;
1874 : 07;
1875 : a6;
1876 : 07;
1877 : a9;
1878 : 6b;
1879 : 9d;
187A : a1;
187B : 06;
187C : a9;
187D : 6c;
187E : 9d;
187F : a2;
1880 : 06;
1881 : 60;
1882 : a0;
1883 : 03;
1884 : 20;
1885 : b1;
1886 : 9b;
1887 : a0;
1888 : 0a;
1889 : 20;
188A : b3;
188B : 98;
188C : b0;
188D : 10;
188E : a2;
188F : 06;
1890 : a9;
1891 : 00;
1892 : 9d;
1893 : a1;
1894 : 06;
1895 : ca;
1896 : 10;
1897 : f8;
1898 : b9;
1899 : dd;
189A : 98;
189B : 8d;
189C : a8;
189D : 06;
189E : 60;
189F : 15;
18A0 : 14;
18A1 : 00;
18A2 : 00;
18A3 : 15;
18A4 : 1e;
18A5 : 1d;
18A6 : 1c;
18A7 : 15;
18A8 : 21;
18A9 : 20;
18AA : 1f;
18AB : a0;
18AC : 03;
18AD : 20;
18AE : b1;
18AF : 9b;
18B0 : 20;
18B1 : bd;
18B2 : 9b;
18B3 : 88;
18B4 : 88;
18B5 : 84;
18B6 : 05;
18B7 : bc;
18B8 : 30;
18B9 : 07;
18BA : 84;
18BB : 06;
18BC : a6;
18BD : 05;
18BE : e8;
18BF : b9;
18C0 : 9f;
18C1 : 98;
18C2 : c9;
18C3 : 00;
18C4 : f0;
18C5 : 08;
18C6 : a2;
18C7 : 00;
18C8 : a4;
18C9 : 05;
18CA : 20;
18CB : 7f;
18CC : 9b;
18CD : 18;
18CE : a4;
18CF : 06;
18D0 : b9;
18D1 : a3;
18D2 : 98;
18D3 : 9d;
18D4 : a1;
18D5 : 06;
18D6 : b9;
18D7 : a7;
18D8 : 98;
18D9 : 9d;
18DA : a2;
18DB : 06;
18DC : 60;
18DD : 11;
18DE : 10;
18DF : 15;
18E0 : 14;
18E1 : 13;
18E2 : 12;
18E3 : 15;
18E4 : 14;
18E5 : 20;
18E6 : 39;
18E7 : 99;
18E8 : a5;
18E9 : 00;
18EA : f0;
18EB : 04;
18EC : c8;
18ED : c8;
18EE : c8;
18EF : c8;
18F0 : 98;
18F1 : 48;
18F2 : ad;
18F3 : 60;
18F4 : 07;
18F5 : 0d;
18F6 : 5f;
18F7 : 07;
18F8 : f0;
18F9 : 2b;
18FA : bc;
18FB : 30;
18FC : 07;
18FD : f0;
18FE : 26;
18FF : 20;
1900 : 4a;
1901 : 99;
1902 : b0;
1903 : 21;
1904 : 20;
1905 : cd;
1906 : 9b;
1907 : 18;
1908 : 69;
1909 : 08;
190A : 95;
190B : 87;
190C : ad;
190D : 25;
190E : 07;
190F : 69;
1910 : 00;
1911 : 95;
1912 : 6e;
1913 : a9;
1914 : 01;
1915 : 95;
1916 : b6;
1917 : 95;
1918 : 0f;
1919 : 20;
191A : d5;
191B : 9b;
191C : 95;
191D : cf;
191E : a9;
191F : 0d;
1920 : 95;
1921 : 16;
1922 : 20;
1923 : 8d;
1924 : c7;
1925 : 68;
1926 : a8;
1927 : a6;
1928 : 07;
1929 : b9;
192A : dd;
192B : 98;
192C : 9d;
192D : a1;
192E : 06;
192F : e8;
1930 : b9;
1931 : df;
1932 : 98;
1933 : a4;
1934 : 06;
1935 : 88;
1936 : 4c;
1937 : 7f;
1938 : 9b;
1939 : a0;
193A : 01;
193B : 20;
193C : b1;
193D : 9b;
193E : 20;
193F : bd;
1940 : 9b;
1941 : 98;
1942 : 29;
1943 : 07;
1944 : 85;
1945 : 06;
1946 : bc;
1947 : 30;
1948 : 07;
1949 : 60;
194A : a2;
194B : 00;
194C : 18;
194D : b5;
194E : 0f;
194F : f0;
1950 : 05;
1951 : e8;
1952 : e0;
1953 : 05;
1954 : d0;
1955 : f6;
1956 : 60;
1957 : 20;
1958 : ae;
1959 : 9b;
195A : a9;
195B : 86;
195C : 8d;
195D : ab;
195E : 06;
195F : a2;
1960 : 0b;
1961 : a0;
1962 : 01;
1963 : a9;
1964 : 87;
1965 : 4c;
1966 : 7f;
1967 : 9b;
1968 : a9;
1969 : 03;
196A : 2c;
196B : a9;
196C : 07;
196D : 48;
196E : 20;
196F : ae;
1970 : 9b;
1971 : 68;
1972 : aa;
1973 : a9;
1974 : c0;
1975 : 9d;
1976 : a1;
1977 : 06;
1978 : 60;
1979 : a9;
197A : 06;
197B : 2c;
197C : a9;
197D : 07;
197E : 2c;
197F : a9;
1980 : 09;
1981 : 48;
1982 : 20;
1983 : ae;
1984 : 9b;
1985 : 68;
1986 : aa;
1987 : a9;
1988 : 0b;
1989 : 9d;
198A : a1;
198B : 06;
198C : e8;
198D : a0;
198E : 00;
198F : a9;
1990 : 63;
1991 : 4c;
1992 : 7f;
1993 : 9b;
1994 : 20;
1995 : bd;
1996 : 9b;
1997 : a2;
1998 : 02;
1999 : a9;
199A : 6d;
199B : 4c;
199C : 7f;
199D : 9b;
199E : a9;
199F : 24;
19A0 : 8d;
19A1 : a1;
19A2 : 06;
19A3 : a2;
19A4 : 01;
19A5 : a0;
19A6 : 08;
19A7 : a9;
19A8 : 25;
19A9 : 20;
19AA : 7f;
19AB : 9b;
19AC : a9;
19AD : 61;
19AE : 8d;
19AF : ab;
19B0 : 06;
19B1 : 20;
19B2 : cd;
19B3 : 9b;
19B4 : 38;
19B5 : e9;
19B6 : 08;
19B7 : 85;
19B8 : 8c;
19B9 : ad;
19BA : 25;
19BB : 07;
19BC : e9;
19BD : 00;
19BE : 85;
19BF : 73;
19C0 : a9;
19C1 : 30;
19C2 : 85;
19C3 : d4;
19C4 : a9;
19C5 : b0;
19C6 : 8d;
19C7 : 0d;
19C8 : 01;
19C9 : a9;
19CA : 30;
19CB : 85;
19CC : 1b;
19CD : e6;
19CE : 14;
19CF : 60;
19D0 : a2;
19D1 : 00;
19D2 : a0;
19D3 : 0f;
19D4 : 4c;
19D5 : e9;
19D6 : 99;
19D7 : 8a;
19D8 : 48;
19D9 : a2;
19DA : 01;
19DB : a0;
19DC : 0f;
19DD : a9;
19DE : 44;
19DF : 20;
19E0 : 7f;
19E1 : 9b;
19E2 : 68;
19E3 : aa;
19E4 : 20;
19E5 : bd;
19E6 : 9b;
19E7 : a2;
19E8 : 01;
19E9 : a9;
19EA : 40;
19EB : 4c;
19EC : 7f;
19ED : 9b;
19EE : c3;
19EF : c2;
19F0 : c2;
19F1 : c2;
19F2 : ac;
19F3 : 4e;
19F4 : 07;
19F5 : b9;
19F6 : ee;
19F7 : 99;
19F8 : 4c;
19F9 : 44;
19FA : 9a;
19FB : 06;
19FC : 07;
19FD : 08;
19FE : c5;
19FF : 0c;
1A00 : 89;
1A01 : a0;
1A02 : 0c;
1A03 : 20;
1A04 : b1;
1A05 : 9b;
1A06 : 4c;
1A07 : 0e;
1A08 : 9a;
1A09 : a9;
1A0A : 08;
1A0B : 8d;
1A0C : 73;
1A0D : 07;
1A0E : a4;
1A0F : 00;
1A10 : be;
1A11 : f9;
1A12 : 99;
1A13 : b9;
1A14 : fc;
1A15 : 99;
1A16 : 4c;
1A17 : 20;
1A18 : 9a;
1A19 : 20;
1A1A : bd;
1A1B : 9b;
1A1C : a6;
1A1D : 07;
1A1E : a9;
1A1F : c4;
1A20 : a0;
1A21 : 00;
1A22 : 4c;
1A23 : 7f;
1A24 : 9b;
1A25 : 69;
1A26 : 61;
1A27 : 61;
1A28 : 62;
1A29 : 22;
1A2A : 51;
1A2B : 52;
1A2C : 52;
1A2D : 88;
1A2E : ac;
1A2F : 4e;
1A30 : 07;
1A31 : ad;
1A32 : 43;
1A33 : 07;
1A34 : f0;
1A35 : 02;
1A36 : a0;
1A37 : 04;
1A38 : b9;
1A39 : 29;
1A3A : 9a;
1A3B : 4c;
1A3C : 44;
1A3D : 9a;
1A3E : ac;
1A3F : 4e;
1A40 : 07;
1A41 : b9;
1A42 : 25;
1A43 : 9a;
1A44 : 48;
1A45 : 20;
1A46 : ae;
1A47 : 9b;
1A48 : a6;
1A49 : 07;
1A4A : a0;
1A4B : 00;
1A4C : 68;
1A4D : 4c;
1A4E : 7f;
1A4F : 9b;
1A50 : ac;
1A51 : 4e;
1A52 : 07;
1A53 : b9;
1A54 : 29;
1A55 : 9a;
1A56 : 4c;
1A57 : 5f;
1A58 : 9a;
1A59 : ac;
1A5A : 4e;
1A5B : 07;
1A5C : b9;
1A5D : 25;
1A5E : 9a;
1A5F : 48;
1A60 : 20;
1A61 : bd;
1A62 : 9b;
1A63 : 68;
1A64 : a6;
1A65 : 07;
1A66 : 4c;
1A67 : 7f;
1A68 : 9b;
1A69 : 20;
1A6A : bd;
1A6B : 9b;
1A6C : a6;
1A6D : 07;
1A6E : a9;
1A6F : 64;
1A70 : 9d;
1A71 : a1;
1A72 : 06;
1A73 : e8;
1A74 : 88;
1A75 : 30;
1A76 : 0e;
1A77 : a9;
1A78 : 65;
1A79 : 9d;
1A7A : a1;
1A7B : 06;
1A7C : e8;
1A7D : 88;
1A7E : 30;
1A7F : 05;
1A80 : a9;
1A81 : 66;
1A82 : 20;
1A83 : 7f;
1A84 : 9b;
1A85 : ae;
1A86 : 6a;
1A87 : 04;
1A88 : 20;
1A89 : d5;
1A8A : 9b;
1A8B : 9d;
1A8C : 77;
1A8D : 04;
1A8E : ad;
1A8F : 25;
1A90 : 07;
1A91 : 9d;
1A92 : 6b;
1A93 : 04;
1A94 : 20;
1A95 : cd;
1A96 : 9b;
1A97 : 9d;
1A98 : 71;
1A99 : 04;
1A9A : e8;
1A9B : e0;
1A9C : 06;
1A9D : 90;
1A9E : 02;
1A9F : a2;
1AA0 : 00;
1AA1 : 8e;
1AA2 : 6a;
1AA3 : 04;
1AA4 : 60;
1AA5 : 07;
1AA6 : 07;
1AA7 : 06;
1AA8 : 05;
1AA9 : 04;
1AAA : 03;
1AAB : 02;
1AAC : 01;
1AAD : 00;
1AAE : 03;
1AAF : 03;
1AB0 : 04;
1AB1 : 05;
1AB2 : 06;
1AB3 : 07;
1AB4 : 08;
1AB5 : 09;
1AB6 : 0a;
1AB7 : 20;
1AB8 : ae;
1AB9 : 9b;
1ABA : 90;
1ABB : 05;
1ABC : a9;
1ABD : 09;
1ABE : 8d;
1ABF : 34;
1AC0 : 07;
1AC1 : ce;
1AC2 : 34;
1AC3 : 07;
1AC4 : ac;
1AC5 : 34;
1AC6 : 07;
1AC7 : be;
1AC8 : ae;
1AC9 : 9a;
1ACA : b9;
1ACB : a5;
1ACC : 9a;
1ACD : a8;
1ACE : a9;
1ACF : 61;
1AD0 : 4c;
1AD1 : 7f;
1AD2 : 9b;
1AD3 : 20;
1AD4 : bd;
1AD5 : 9b;
1AD6 : 20;
1AD7 : 4a;
1AD8 : 99;
1AD9 : b0;
1ADA : 27;
1ADB : 20;
1ADC : cd;
1ADD : 9b;
1ADE : 95;
1ADF : 87;
1AE0 : ad;
1AE1 : 25;
1AE2 : 07;
1AE3 : 95;
1AE4 : 6e;
1AE5 : 20;
1AE6 : d5;
1AE7 : 9b;
1AE8 : 95;
1AE9 : cf;
1AEA : 95;
1AEB : 58;
1AEC : a9;
1AED : 32;
1AEE : 95;
1AEF : 16;
1AF0 : a0;
1AF1 : 01;
1AF2 : 94;
1AF3 : b6;
1AF4 : f6;
1AF5 : 0f;
1AF6 : a6;
1AF7 : 07;
1AF8 : a9;
1AF9 : 67;
1AFA : 9d;
1AFB : a1;
1AFC : 06;
1AFD : a9;
1AFE : 68;
1AFF : 9d;
1B00 : a2;
1B01 : 06;
1B02 : 60;
1B03 : ad;
1B04 : 5d;
1B05 : 07;
1B06 : f0;
1B07 : 36;
1B08 : a9;
1B09 : 00;
1B0A : 8d;
1B0B : 5d;
1B0C : 07;
1B0D : 4c;
1B0E : 1b;
1B0F : 9b;
1B10 : 20;
1B11 : 38;
1B12 : 9b;
1B13 : 4c;
1B14 : 2e;
1B15 : 9b;
1B16 : a9;
1B17 : 00;
1B18 : 8d;
1B19 : bc;
1B1A : 06;
1B1B : 20;
1B1C : 38;
1B1D : 9b;
1B1E : 84;
1B1F : 07;
1B20 : a9;
1B21 : 00;
1B22 : ac;
1B23 : 4e;
1B24 : 07;
1B25 : 88;
1B26 : f0;
1B27 : 02;
1B28 : a9;
1B29 : 05;
1B2A : 18;
1B2B : 65;
1B2C : 07;
1B2D : a8;
1B2E : b9;
1B2F : ed;
1B30 : bd;
1B31 : 48;
1B32 : 20;
1B33 : bd;
1B34 : 9b;
1B35 : 4c;
1B36 : 48;
1B37 : 9a;
1B38 : a5;
1B39 : 00;
1B3A : 38;
1B3B : e9;
1B3C : 00;
1B3D : a8;
1B3E : 60;
1B3F : 87;
1B40 : 00;
1B41 : 00;
1B42 : 00;
1B43 : 20;
1B44 : ae;
1B45 : 9b;
1B46 : 90;
1B47 : 2d;
1B48 : ad;
1B49 : 4e;
1B4A : 07;
1B4B : d0;
1B4C : 28;
1B4D : ae;
1B4E : 6a;
1B4F : 04;
1B50 : 20;
1B51 : cd;
1B52 : 9b;
1B53 : 38;
1B54 : e9;
1B55 : 10;
1B56 : 9d;
1B57 : 71;
1B58 : 04;
1B59 : ad;
1B5A : 25;
1B5B : 07;
1B5C : e9;
1B5D : 00;
1B5E : 9d;
1B5F : 6b;
1B60 : 04;
1B61 : c8;
1B62 : c8;
1B63 : 98;
1B64 : 0a;
1B65 : 0a;
1B66 : 0a;
1B67 : 0a;
1B68 : 9d;
1B69 : 77;
1B6A : 04;
1B6B : e8;
1B6C : e0;
1B6D : 05;
1B6E : 90;
1B6F : 02;
1B70 : a2;
1B71 : 00;
1B72 : 8e;
1B73 : 6a;
1B74 : 04;
1B75 : ae;
1B76 : 4e;
1B77 : 07;
1B78 : bd;
1B79 : 3f;
1B7A : 9b;
1B7B : a2;
1B7C : 08;
1B7D : a0;
1B7E : 0f;
1B7F : 8c;
1B80 : 35;
1B81 : 07;
1B82 : bc;
1B83 : a1;
1B84 : 06;
1B85 : f0;
1B86 : 18;
1B87 : c0;
1B88 : 17;
1B89 : f0;
1B8A : 17;
1B8B : c0;
1B8C : 1a;
1B8D : f0;
1B8E : 13;
1B8F : c0;
1B90 : c0;
1B91 : f0;
1B92 : 0c;
1B93 : c0;
1B94 : c0;
1B95 : b0;
1B96 : 0b;
1B97 : c0;
1B98 : 54;
1B99 : d0;
1B9A : 04;
1B9B : c9;
1B9C : 50;
1B9D : f0;
1B9E : 03;
1B9F : 9d;
1BA0 : a1;
1BA1 : 06;
1BA2 : e8;
1BA3 : e0;
1BA4 : 0d;
1BA5 : b0;
1BA6 : 06;
1BA7 : ac;
1BA8 : 35;
1BA9 : 07;
1BAA : 88;
1BAB : 10;
1BAC : d2;
1BAD : 60;
1BAE : 20;
1BAF : bd;
1BB0 : 9b;
1BB1 : bd;
1BB2 : 30;
1BB3 : 07;
1BB4 : 18;
1BB5 : 10;
1BB6 : 05;
1BB7 : 98;
1BB8 : 9d;
1BB9 : 30;
1BBA : 07;
1BBB : 38;
1BBC : 60;
1BBD : bc;
1BBE : 2d;
1BBF : 07;
1BC0 : b1;
1BC1 : e7;
1BC2 : 29;
1BC3 : 0f;
1BC4 : 85;
1BC5 : 07;
1BC6 : c8;
1BC7 : b1;
1BC8 : e7;
1BC9 : 29;
1BCA : 0f;
1BCB : a8;
1BCC : 60;
1BCD : ad;
1BCE : 26;
1BCF : 07;
1BD0 : 0a;
1BD1 : 0a;
1BD2 : 0a;
1BD3 : 0a;
1BD4 : 60;
1BD5 : a5;
1BD6 : 07;
1BD7 : 0a;
1BD8 : 0a;
1BD9 : 0a;
1BDA : 0a;
1BDB : 18;
1BDC : 69;
1BDD : 20;
1BDE : 60;
1BDF : 00;
1BE0 : d0;
1BE1 : 05;
1BE2 : 05;
1BE3 : 48;
1BE4 : 4a;
1BE5 : 4a;
1BE6 : 4a;
1BE7 : 4a;
1BE8 : a8;
1BE9 : b9;
1BEA : e1;
1BEB : 9b;
1BEC : 85;
1BED : 07;
1BEE : 68;
1BEF : 29;
1BF0 : 0f;
1BF1 : 18;
1BF2 : 79;
1BF3 : df;
1BF4 : 9b;
1BF5 : 85;
1BF6 : 06;
1BF7 : 60;
1BF8 : 12;
1BF9 : 36;
1BFA : 0e;
1BFB : 0e;
1BFC : 0e;
1BFD : 32;
1BFE : 32;
1BFF : 32;
1C00 : 0a;
1C01 : 26;
1C02 : 40;
1C03 : 20;
1C04 : 13;
1C05 : 9c;
1C06 : 8d;
1C07 : 50;
1C08 : 07;
1C09 : 29;
1C0A : 60;
1C0B : 0a;
1C0C : 2a;
1C0D : 2a;
1C0E : 2a;
1C0F : 8d;
1C10 : 4e;
1C11 : 07;
1C12 : 60;
1C13 : ac;
1C14 : 5f;
1C15 : 07;
1C16 : b9;
1C17 : b4;
1C18 : 9c;
1C19 : 18;
1C1A : 6d;
1C1B : 60;
1C1C : 07;
1C1D : a8;
1C1E : b9;
1C1F : bc;
1C20 : 9c;
1C21 : 60;
1C22 : ad;
1C23 : 50;
1C24 : 07;
1C25 : 20;
1C26 : 09;
1C27 : 9c;
1C28 : a8;
1C29 : ad;
1C2A : 50;
1C2B : 07;
1C2C : 29;
1C2D : 1f;
1C2E : 8d;
1C2F : 4f;
1C30 : 07;
1C31 : b9;
1C32 : e0;
1C33 : 9c;
1C34 : 18;
1C35 : 6d;
1C36 : 4f;
1C37 : 07;
1C38 : a8;
1C39 : b9;
1C3A : e4;
1C3B : 9c;
1C3C : 85;
1C3D : e9;
1C3E : b9;
1C3F : 06;
1C40 : 9d;
1C41 : 85;
1C42 : ea;
1C43 : ac;
1C44 : 4e;
1C45 : 07;
1C46 : b9;
1C47 : 28;
1C48 : 9d;
1C49 : 18;
1C4A : 6d;
1C4B : 4f;
1C4C : 07;
1C4D : a8;
1C4E : b9;
1C4F : 2c;
1C50 : 9d;
1C51 : 85;
1C52 : e7;
1C53 : b9;
1C54 : 4e;
1C55 : 9d;
1C56 : 85;
1C57 : e8;
1C58 : a0;
1C59 : 00;
1C5A : b1;
1C5B : e7;
1C5C : 48;
1C5D : 29;
1C5E : 07;
1C5F : c9;
1C60 : 04;
1C61 : 90;
[...]
78E7 : 7d;
78E8 : f0;
78E9 : 04;
78EA : a9;
78EB : 08;
78EC : d0;
78ED : 02;
78EE : a9;
78EF : 28;
78F0 : a2;
78F1 : 82;
78F2 : a0;
78F3 : 7f;
78F4 : 60;
78F5 : ad;
78F6 : b1;
78F7 : 07;
78F8 : 29;
78F9 : 08;
78FA : f0;
78FB : 04;
78FC : b9;
78FD : 96;
78FE : ff;
78FF : 60;
7900 : a5;
7901 : f4;
7902 : 29;
7903 : 7d;
7904 : f0;
7905 : 04;
7906 : b9;
7907 : 9a;
7908 : ff;
7909 : 60;
790A : b9;
790B : a2;
790C : ff;
790D : 60;
790E : a5;
790F : 59;
7910 : 54;
7911 : 64;
7912 : 59;
7913 : 3c;
7914 : 31;
7915 : 4b;
7916 : 69;
7917 : 5e;
7918 : 46;
7919 : 4f;
791A : 36;
791B : 8d;
791C : 36;
791D : 4b;
791E : 8d;
791F : 69;
7920 : 69;
7921 : 6f;
7922 : 75;
7923 : 6f;
7924 : 7b;
7925 : 6f;
7926 : 75;
7927 : 6f;
7928 : 7b;
7929 : 81;
792A : 87;
792B : 81;
792C : 8d;
792D : 69;
792E : 69;
792F : 93;
7930 : 99;
7931 : 93;
7932 : 9f;
7933 : 93;
7934 : 99;
7935 : 93;
7936 : 9f;
7937 : 81;
7938 : 87;
7939 : 81;
793A : 8d;
793B : 93;
793C : 99;
793D : 93;
793E : 9f;
793F : 08;
7940 : 73;
7941 : fc;
7942 : 27;
7943 : 18;
7944 : 20;
7945 : b9;
7946 : f9;
7947 : 2e;
7948 : 1a;
7949 : 40;
794A : 20;
794B : b1;
794C : fc;
794D : 3d;
794E : 21;
794F : 20;
7950 : c5;
7951 : fc;
7952 : 3f;
7953 : 1d;
7954 : 18;
7955 : 12;
7956 : fd;
7957 : 00;
7958 : 00;
7959 : 08;
795A : 1d;
795B : fa;
795C : 00;
795D : 00;
795E : a5;
795F : fb;
7960 : 93;
7961 : 62;
7962 : 10;
7963 : c9;
7964 : fe;
7965 : 24;
7966 : 14;
7967 : 18;
7968 : 46;
7969 : fc;
796A : 1e;
796B : 14;
796C : 08;
796D : 53;
796E : fd;
796F : a0;
7970 : 70;
7971 : 68;
7972 : 08;
7973 : 52;
7974 : fe;
7975 : 4c;
7976 : 24;
7977 : 18;
7978 : 02;
7979 : fa;
797A : 2d;
797B : 1c;
797C : b8;
797D : 18;
797E : 4a;
797F : fa;
7980 : 20;
7981 : 12;
7982 : 70;
7983 : 18;
7984 : 76;
7985 : fa;
7986 : 1b;
7987 : 10;
7988 : 44;
7989 : 18;
798A : 9e;
798B : fa;
798C : 11;
798D : 0a;
798E : 1c;
798F : 18;
7990 : c3;
7991 : fa;
7992 : 2d;
7993 : 10;
7994 : 58;
7995 : 18;
7996 : dc;
7997 : fa;
7998 : 14;
7999 : 0d;
799A : 3f;
799B : 18;
799C : fa;
799D : fa;
799E : 15;
799F : 0d;
79A0 : 21;
79A1 : 18;
79A2 : 26;
79A3 : fb;
79A4 : 18;
79A5 : 10;
79A6 : 7a;
79A7 : 18;
79A8 : 4c;
79A9 : fb;
79AA : 19;
79AB : 0f;
79AC : 54;
79AD : 18;
79AE : 75;
79AF : fb;
79B0 : 1e;
79B1 : 12;
79B2 : 2b;
79B3 : 18;
79B4 : 73;
79B5 : fb;
79B6 : 1e;
79B7 : 0f;
79B8 : 2d;
79B9 : 84;
79BA : 2c;
79BB : 2c;
79BC : 2c;
79BD : 82;
79BE : 04;
79BF : 2c;
79C0 : 04;
79C1 : 85;
79C2 : 2c;
79C3 : 84;
79C4 : 2c;
79C5 : 2c;
79C6 : 2a;
79C7 : 2a;
79C8 : 2a;
79C9 : 82;
79CA : 04;
79CB : 2a;
79CC : 04;
79CD : 85;
79CE : 2a;
79CF : 84;
79D0 : 2a;
79D1 : 2a;
79D2 : 00;
79D3 : 1f;
79D4 : 1f;
79D5 : 1f;
79D6 : 98;
79D7 : 1f;
79D8 : 1f;
79D9 : 98;
79DA : 9e;
79DB : 98;
79DC : 1f;
79DD : 1d;
79DE : 1d;
79DF : 1d;
79E0 : 94;
79E1 : 1d;
79E2 : 1d;
79E3 : 94;
79E4 : 9c;
79E5 : 94;
79E6 : 1d;
79E7 : 86;
79E8 : 18;
79E9 : 85;
79EA : 26;
79EB : 30;
79EC : 84;
79ED : 04;
79EE : 26;
79EF : 30;
79F0 : 86;
79F1 : 14;
79F2 : 85;
79F3 : 22;
79F4 : 2c;
79F5 : 84;
79F6 : 04;
79F7 : 22;
79F8 : 2c;
79F9 : 21;
79FA : d0;
79FB : c4;
79FC : d0;
79FD : 31;
79FE : d0;
79FF : c4;
7A00 : d0;
7A01 : 00;
7A02 : 85;
7A03 : 2c;
7A04 : 22;
7A05 : 1c;
7A06 : 84;
7A07 : 26;
7A08 : 2a;
7A09 : 82;
7A0A : 28;
7A0B : 26;
7A0C : 04;
7A0D : 87;
7A0E : 22;
7A0F : 34;
7A10 : 3a;
7A11 : 82;
7A12 : 40;
7A13 : 04;
7A14 : 36;
7A15 : 84;
7A16 : 3a;
7A17 : 34;
7A18 : 82;
7A19 : 2c;
7A1A : 30;
7A1B : 85;
7A1C : 2a;
7A1D : 00;
7A1E : 5d;
7A1F : 55;
7A20 : 4d;
7A21 : 15;
7A22 : 19;
7A23 : 96;
7A24 : 15;
7A25 : d5;
7A26 : e3;
7A27 : eb;
7A28 : 2d;
7A29 : a6;
7A2A : 2b;
7A2B : 27;
7A2C : 9c;
7A2D : 9e;
7A2E : 59;
7A2F : 85;
7A30 : 22;
7A31 : 1c;
7A32 : 14;
7A33 : 84;
7A34 : 1e;
7A35 : 22;
7A36 : 82;
7A37 : 20;
7A38 : 1e;
7A39 : 04;
7A3A : 87;
7A3B : 1c;
7A3C : 2c;
7A3D : 34;
7A3E : 82;
7A3F : 36;
7A40 : 04;
7A41 : 30;
7A42 : 34;
7A43 : 04;
7A44 : 2c;
7A45 : 04;
7A46 : 26;
7A47 : 2a;
7A48 : 85;
7A49 : 22;
7A4A : 84;
7A4B : 04;
7A4C : 82;
7A4D : 3a;
7A4E : 38;
7A4F : 36;
7A50 : 32;
7A51 : 04;
7A52 : 34;
7A53 : 04;
7A54 : 24;
7A55 : 26;
7A56 : 2c;
7A57 : 04;
7A58 : 26;
7A59 : 2c;
7A5A : 30;
7A5B : 00;
7A5C : 05;
7A5D : b4;
7A5E : b2;
7A5F : b0;
7A60 : 2b;
7A61 : ac;
7A62 : 84;
7A63 : 9c;
7A64 : 9e;
7A65 : a2;
7A66 : 84;
7A67 : 94;
7A68 : 9c;
7A69 : 9e;
7A6A : 85;
7A6B : 14;
7A6C : 22;
7A6D : 84;
7A6E : 2c;
7A6F : 85;
7A70 : 1e;
7A71 : 82;
7A72 : 2c;
7A73 : 84;
7A74 : 2c;
7A75 : 1e;
7A76 : 84;
7A77 : 04;
7A78 : 82;
7A79 : 3a;
7A7A : 38;
7A7B : 36;
7A7C : 32;
7A7D : 04;
7A7E : 34;
7A7F : 04;
7A80 : 64;
7A81 : 04;
7A82 : 64;
7A83 : 86;
7A84 : 64;
7A85 : 00;
7A86 : 05;
7A87 : b4;
7A88 : b2;
7A89 : b0;
7A8A : 2b;
7A8B : ac;
7A8C : 84;
7A8D : 37;
7A8E : b6;
7A8F : b6;
7A90 : 45;
7A91 : 85;
7A92 : 14;
7A93 : 1c;
7A94 : 82;
7A95 : 22;
7A96 : 84;
7A97 : 2c;
7A98 : 4e;
7A99 : 82;
7A9A : 4e;
7A9B : 84;
7A9C : 4e;
7A9D : 22;
7A9E : 84;
7A9F : 04;
7AA0 : 85;
7AA1 : 32;
7AA2 : 85;
7AA3 : 30;
7AA4 : 86;
7AA5 : 2c;
7AA6 : 04;
7AA7 : 00;
7AA8 : 05;
7AA9 : a4;
7AAA : 05;
7AAB : 9e;
7AAC : 05;
7AAD : 9d;
7AAE : 85;
7AAF : 84;
7AB0 : 14;
7AB1 : 85;
7AB2 : 24;
7AB3 : 28;
7AB4 : 2c;
7AB5 : 82;
7AB6 : 22;
7AB7 : 84;
7AB8 : 22;
7AB9 : 14;
7ABA : 21;
7ABB : d0;
7ABC : c4;
7ABD : d0;
7ABE : 31;
7ABF : d0;
7AC0 : c4;
7AC1 : d0;
7AC2 : 00;
7AC3 : 82;
7AC4 : 2c;
7AC5 : 84;
7AC6 : 2c;
7AC7 : 2c;
7AC8 : 82;
7AC9 : 2c;
7ACA : 30;
7ACB : 04;
7ACC : 34;
7ACD : 2c;
7ACE : 04;
7ACF : 26;
7AD0 : 86;
7AD1 : 22;
7AD2 : 00;
7AD3 : a4;
7AD4 : 25;
7AD5 : 25;
7AD6 : a4;
7AD7 : 29;
7AD8 : a2;
7AD9 : 1d;
7ADA : 9c;
7ADB : 95;
7ADC : 82;
7ADD : 2c;
7ADE : 2c;
7ADF : 04;
7AE0 : 2c;
7AE1 : 04;
7AE2 : 2c;
7AE3 : 30;
7AE4 : 85;
7AE5 : 34;
7AE6 : 04;
7AE7 : 04;
7AE8 : 00;
7AE9 : a4;
7AEA : 25;
7AEB : 25;
7AEC : a4;
7AED : a8;
7AEE : 63;
7AEF : 04;
7AF0 : 85;
7AF1 : 0e;
7AF2 : 1a;
7AF3 : 84;
7AF4 : 24;
7AF5 : 85;
7AF6 : 22;
7AF7 : 14;
7AF8 : 84;
7AF9 : 0c;
7AFA : 82;
7AFB : 34;
7AFC : 84;
7AFD : 34;
7AFE : 34;
7AFF : 82;
7B00 : 2c;
7B01 : 84;
7B02 : 34;
7B03 : 86;
7B04 : 3a;
7B05 : 04;
7B06 : 00;
7B07 : a0;
7B08 : 21;
7B09 : 21;
7B0A : a0;
7B0B : 21;
7B0C : 2b;
7B0D : 05;
7B0E : a3;
7B0F : 82;
7B10 : 18;
7B11 : 84;
7B12 : 18;
7B13 : 18;
7B14 : 82;
7B15 : 18;
7B16 : 18;
7B17 : 04;
7B18 : 86;
7B19 : 3a;
7B1A : 22;
7B1B : 31;
7B1C : 90;
7B1D : 31;
7B1E : 90;
7B1F : 31;
7B20 : 71;
7B21 : 31;
7B22 : 90;
7B23 : 90;
7B24 : 90;
7B25 : 00;
7B26 : 82;
7B27 : 34;
7B28 : 84;
7B29 : 2c;
7B2A : 85;
7B2B : 22;
7B2C : 84;
7B2D : 24;
7B2E : 82;
7B2F : 26;
7B30 : 36;
7B31 : 04;
7B32 : 36;
7B33 : 86;
7B34 : 26;
7B35 : 00;
7B36 : ac;
7B37 : 27;
7B38 : 5d;
7B39 : 1d;
7B3A : 9e;
7B3B : 2d;
7B3C : ac;
7B3D : 9f;
7B3E : 85;
7B3F : 14;
7B40 : 82;
7B41 : 20;
7B42 : 84;
7B43 : 22;
7B44 : 2c;
7B45 : 1e;
7B46 : 1e;
7B47 : 82;
7B48 : 2c;
7B49 : 2c;
7B4A : 1e;
7B4B : 04;
7B4C : 87;
7B4D : 2a;
7B4E : 40;
7B4F : 40;
7B50 : 40;
7B51 : 3a;
7B52 : 36;
7B53 : 82;
7B54 : 34;
7B55 : 2c;
7B56 : 04;
7B57 : 26;
7B58 : 86;
7B59 : 22;
7B5A : 00;
7B5B : e3;
7B5C : f7;
7B5D : f7;
7B5E : f7;
7B5F : f5;
7B60 : f1;
7B61 : ac;
7B62 : 27;
7B63 : 9e;
7B64 : 9d;
7B65 : 85;
7B66 : 18;
7B67 : 82;
7B68 : 1e;
7B69 : 84;
7B6A : 22;
7B6B : 2a;
7B6C : 22;
7B6D : 22;
7B6E : 82;
7B6F : 2c;
7B70 : 2c;
7B71 : 22;
7B72 : 04;
7B73 : 86;
7B74 : 04;
7B75 : 82;
7B76 : 2a;
7B77 : 36;
7B78 : 04;
7B79 : 36;
7B7A : 87;
7B7B : 36;
7B7C : 34;
7B7D : 30;
7B7E : 86;
7B7F : 2c;
7B80 : 04;
7B81 : 00;
7B82 : 00;
7B83 : 68;
7B84 : 6a;
7B85 : 6c;
7B86 : 45;
7B87 : a2;
7B88 : 31;
7B89 : b0;
7B8A : f1;
7B8B : ed;
7B8C : eb;
7B8D : a2;
7B8E : 1d;
7B8F : 9c;
7B90 : 95;
7B91 : 86;
7B92 : 04;
7B93 : 85;
7B94 : 22;
7B95 : 82;
7B96 : 22;
7B97 : 87;
7B98 : 22;
7B99 : 26;
7B9A : 2a;
7B9B : 84;
7B9C : 2c;
7B9D : 22;
7B9E : 86;
7B9F : 14;
7BA0 : 51;
7BA1 : 90;
7BA2 : 31;
7BA3 : 11;
7BA4 : 00;
7BA5 : 80;
7BA6 : 22;
7BA7 : 28;
7BA8 : 22;
7BA9 : 26;
7BAA : 22;
7BAB : 24;
7BAC : 22;
7BAD : 26;
7BAE : 22;
7BAF : 28;
7BB0 : 22;
7BB1 : 2a;
7BB2 : 22;
7BB3 : 28;
7BB4 : 22;
7BB5 : 26;
7BB6 : 22;
7BB7 : 28;
7BB8 : 22;
7BB9 : 26;
7BBA : 22;
7BBB : 24;
7BBC : 22;
7BBD : 26;
7BBE : 22;
7BBF : 28;
7BC0 : 22;
7BC1 : 2a;
7BC2 : 22;
7BC3 : 28;
7BC4 : 22;
7BC5 : 26;
7BC6 : 20;
7BC7 : 26;
7BC8 : 20;
7BC9 : 24;
7BCA : 20;
7BCB : 26;
7BCC : 20;
7BCD : 28;
7BCE : 20;
7BCF : 26;
7BD0 : 20;
7BD1 : 28;
7BD2 : 20;
7BD3 : 26;
7BD4 : 20;
7BD5 : 24;
7BD6 : 20;
7BD7 : 26;
7BD8 : 20;
7BD9 : 24;
7BDA : 20;
7BDB : 26;
7BDC : 20;
7BDD : 28;
7BDE : 20;
7BDF : 26;
7BE0 : 20;
7BE1 : 28;
7BE2 : 20;
7BE3 : 26;
7BE4 : 20;
7BE5 : 24;
7BE6 : 28;
7BE7 : 30;
7BE8 : 28;
7BE9 : 32;
7BEA : 28;
7BEB : 30;
7BEC : 28;
7BED : 2e;
7BEE : 28;
7BEF : 30;
7BF0 : 28;
7BF1 : 2e;
7BF2 : 28;
7BF3 : 2c;
7BF4 : 28;
7BF5 : 2e;
7BF6 : 28;
7BF7 : 30;
7BF8 : 28;
7BF9 : 32;
7BFA : 28;
7BFB : 30;
7BFC : 28;
7BFD : 2e;
7BFE : 28;
7BFF : 30;
7C00 : 28;
7C01 : 2e;
7C02 : 28;
7C03 : 2c;
7C04 : 28;
7C05 : 2e;
7C06 : 00;
7C07 : 04;
7C08 : 70;
7C09 : 6e;
7C0A : 6c;
7C0B : 6e;
7C0C : 70;
7C0D : 72;
7C0E : 70;
7C0F : 6e;
7C10 : 70;
7C11 : 6e;
7C12 : 6c;
7C13 : 6e;
7C14 : 70;
7C15 : 72;
7C16 : 70;
7C17 : 6e;
7C18 : 6e;
7C19 : 6c;
7C1A : 6e;
7C1B : 70;
7C1C : 6e;
7C1D : 70;
7C1E : 6e;
7C1F : 6c;
7C20 : 6e;
7C21 : 6c;
7C22 : 6e;
7C23 : 70;
7C24 : 6e;
7C25 : 70;
7C26 : 6e;
7C27 : 6c;
7C28 : 76;
7C29 : 78;
7C2A : 76;
7C2B : 74;
7C2C : 76;
7C2D : 74;
7C2E : 72;
7C2F : 74;
7C30 : 76;
7C31 : 78;
7C32 : 76;
7C33 : 74;
7C34 : 76;
7C35 : 74;
7C36 : 72;
7C37 : 74;
7C38 : 84;
7C39 : 1a;
7C3A : 83;
7C3B : 18;
7C3C : 20;
7C3D : 84;
7C3E : 1e;
7C3F : 83;
7C40 : 1c;
7C41 : 28;
7C42 : 26;
7C43 : 1c;
7C44 : 1a;
7C45 : 1c;
7C46 : 82;
7C47 : 2c;
7C48 : 04;
7C49 : 04;
7C4A : 22;
7C4B : 04;
7C4C : 04;
7C4D : 84;
7C4E : 1c;
7C4F : 87;
7C50 : 26;
7C51 : 2a;
7C52 : 26;
7C53 : 84;
7C54 : 24;
7C55 : 28;
7C56 : 24;
7C57 : 80;
7C58 : 22;
7C59 : 00;
7C5A : 9c;
7C5B : 05;
7C5C : 94;
7C5D : 05;
7C5E : 0d;
7C5F : 9f;
7C60 : 1e;
7C61 : 9c;
7C62 : 98;
7C63 : 9d;
7C64 : 82;
7C65 : 22;
7C66 : 04;
7C67 : 04;
7C68 : 1c;
7C69 : 04;
7C6A : 04;
7C6B : 84;
7C6C : 14;
7C6D : 86;
7C6E : 1e;
7C6F : 80;
7C70 : 16;
7C71 : 80;
7C72 : 14;
7C73 : 81;
7C74 : 1c;
7C75 : 30;
7C76 : 04;
7C77 : 30;
7C78 : 30;
7C79 : 04;
7C7A : 1e;
7C7B : 32;
7C7C : 04;
7C7D : 32;
7C7E : 32;
7C7F : 04;
7C80 : 20;
7C81 : 34;
7C82 : 04;
7C83 : 34;
7C84 : 34;
7C85 : 04;
7C86 : 36;
7C87 : 04;
7C88 : 84;
7C89 : 36;
7C8A : 00;
7C8B : 46;
7C8C : a4;
7C8D : 64;
7C8E : a4;
7C8F : 48;
7C90 : a6;
7C91 : 66;
7C92 : a6;
7C93 : 4a;
7C94 : a8;
7C95 : 68;
7C96 : a8;
7C97 : 6a;
7C98 : 44;
7C99 : 2b;
7C9A : 81;
7C9B : 2a;
7C9C : 42;
7C9D : 04;
7C9E : 42;
7C9F : 42;
7CA0 : 04;
7CA1 : 2c;
7CA2 : 64;
7CA3 : 04;
7CA4 : 64;
7CA5 : 64;
7CA6 : 04;
7CA7 : 2e;
7CA8 : 46;
7CA9 : 04;
7CAA : 46;
7CAB : 46;
7CAC : 04;
7CAD : 22;
7CAE : 04;
7CAF : 84;
7CB0 : 22;
7CB1 : 87;
7CB2 : 04;
7CB3 : 06;
7CB4 : 0c;
7CB5 : 14;
7CB6 : 1c;
7CB7 : 22;
7CB8 : 86;
7CB9 : 2c;
7CBA : 22;
7CBB : 87;
7CBC : 04;
7CBD : 60;
7CBE : 0e;
7CBF : 14;
7CC0 : 1a;
7CC1 : 24;
7CC2 : 86;
7CC3 : 2c;
7CC4 : 24;
7CC5 : 87;
7CC6 : 04;
7CC7 : 08;
7CC8 : 10;
7CC9 : 18;
7CCA : 1e;
7CCB : 28;
7CCC : 86;
7CCD : 30;
7CCE : 30;
7CCF : 80;
7CD0 : 64;
7CD1 : 00;
7CD2 : cd;
7CD3 : d5;
7CD4 : dd;
7CD5 : e3;
7CD6 : ed;
7CD7 : f5;
7CD8 : bb;
7CD9 : b5;
7CDA : cf;
7CDB : d5;
7CDC : db;
7CDD : e5;
7CDE : ed;
7CDF : f3;
7CE0 : bd;
7CE1 : b3;
7CE2 : d1;
7CE3 : d9;
7CE4 : df;
7CE5 : e9;
7CE6 : f1;
7CE7 : f7;
7CE8 : bf;
7CE9 : ff;
7CEA : ff;
7CEB : ff;
7CEC : 34;
7CED : 00;
7CEE : 86;
7CEF : 04;
7CF0 : 87;
7CF1 : 14;
7CF2 : 1c;
7CF3 : 22;
7CF4 : 86;
7CF5 : 34;
7CF6 : 84;
7CF7 : 2c;
7CF8 : 04;
7CF9 : 04;
7CFA : 04;
7CFB : 87;
7CFC : 14;
7CFD : 1a;
7CFE : 24;
7CFF : 86;
7D00 : 32;
7D01 : 84;
7D02 : 2c;
7D03 : 04;
7D04 : 86;
7D05 : 04;
7D06 : 87;
7D07 : 18;
7D08 : 1e;
7D09 : 28;
7D0A : 86;
7D0B : 36;
7D0C : 87;
7D0D : 30;
7D0E : 30;
7D0F : 30;
7D10 : 80;
7D11 : 2c;
7D12 : 82;
7D13 : 14;
7D14 : 2c;
7D15 : 62;
7D16 : 26;
7D17 : 10;
7D18 : 28;
7D19 : 80;
7D1A : 04;
7D1B : 82;
7D1C : 14;
7D1D : 2c;
7D1E : 62;
7D1F : 26;
7D20 : 10;
7D21 : 28;
7D22 : 80;
7D23 : 04;
7D24 : 82;
7D25 : 08;
7D26 : 1e;
7D27 : 5e;
7D28 : 18;
7D29 : 60;
7D2A : 1a;
7D2B : 80;
7D2C : 04;
7D2D : 82;
7D2E : 08;
7D2F : 1e;
7D30 : 5e;
7D31 : 18;
7D32 : 60;
7D33 : 1a;
7D34 : 86;
7D35 : 04;
7D36 : 83;
7D37 : 1a;
7D38 : 18;
7D39 : 16;
7D3A : 84;
7D3B : 14;
7D3C : 1a;
7D3D : 18;
7D3E : 0e;
7D3F : 0c;
7D40 : 16;
7D41 : 83;
7D42 : 14;
7D43 : 20;
7D44 : 1e;
7D45 : 1c;
7D46 : 28;
7D47 : 26;
7D48 : 87;
7D49 : 24;
7D4A : 1a;
7D4B : 12;
7D4C : 10;
7D4D : 62;
7D4E : 0e;
7D4F : 80;
7D50 : 04;
7D51 : 04;
7D52 : 00;
7D53 : 82;
7D54 : 18;
7D55 : 1c;
7D56 : 20;
7D57 : 22;
7D58 : 26;
7D59 : 28;
7D5A : 81;
7D5B : 2a;
7D5C : 2a;
7D5D : 2a;
7D5E : 04;
7D5F : 2a;
7D60 : 04;
7D61 : 83;
7D62 : 2a;
7D63 : 82;
7D64 : 22;
7D65 : 86;
7D66 : 34;
7D67 : 32;
7D68 : 34;
7D69 : 81;
7D6A : 04;
7D6B : 22;
7D6C : 26;
7D6D : 2a;
7D6E : 2c;
7D6F : 30;
7D70 : 86;
7D71 : 34;
7D72 : 83;
7D73 : 32;
7D74 : 82;
7D75 : 36;
7D76 : 84;
7D77 : 34;
7D78 : 85;
7D79 : 04;
7D7A : 81;
7D7B : 22;
7D7C : 86;
7D7D : 30;
7D7E : 2e;
7D7F : 30;
7D80 : 81;
7D81 : 04;
7D82 : 22;
7D83 : 26;
7D84 : 2a;
7D85 : 2c;
7D86 : 2e;
7D87 : 86;
7D88 : 30;
7D89 : 83;
7D8A : 22;
7D8B : 82;
7D8C : 36;
7D8D : 84;
7D8E : 34;
7D8F : 85;
7D90 : 04;
7D91 : 81;
7D92 : 22;
7D93 : 86;
7D94 : 3a;
7D95 : 3a;
7D96 : 3a;
7D97 : 82;
7D98 : 3a;
7D99 : 81;
7D9A : 40;
7D9B : 82;
7D9C : 04;
7D9D : 81;
7D9E : 3a;
7D9F : 86;
7DA0 : 36;
7DA1 : 36;
7DA2 : 36;
7DA3 : 82;
7DA4 : 36;
7DA5 : 81;
7DA6 : 3a;
7DA7 : 82;
7DA8 : 04;
7DA9 : 81;
7DAA : 36;
7DAB : 86;
7DAC : 34;
7DAD : 82;
7DAE : 26;
7DAF : 2a;
7DB0 : 36;
7DB1 : 81;
7DB2 : 34;
7DB3 : 34;
7DB4 : 85;
7DB5 : 34;
7DB6 : 81;
7DB7 : 2a;
7DB8 : 86;
7DB9 : 2c;
7DBA : 00;
7DBB : 84;
7DBC : 90;
7DBD : b0;
7DBE : 84;
7DBF : 50;
7DC0 : 50;
7DC1 : b0;
7DC2 : 00;
7DC3 : 98;
7DC4 : 96;
7DC5 : 94;
7DC6 : 92;
7DC7 : 94;
7DC8 : 96;
7DC9 : 58;
7DCA : 58;
7DCB : 58;
7DCC : 44;
7DCD : 5c;
7DCE : 44;
7DCF : 9f;
7DD0 : a3;
7DD1 : a1;
7DD2 : a3;
7DD3 : 85;
7DD4 : a3;
7DD5 : e0;
7DD6 : a6;
7DD7 : 23;
7DD8 : c4;
7DD9 : 9f;
7DDA : 9d;
7DDB : 9f;
7DDC : 85;
7DDD : 9f;
7DDE : d2;
7DDF : a6;
7DE0 : 23;
7DE1 : c4;
7DE2 : b5;
7DE3 : b1;
7DE4 : af;
7DE5 : 85;
7DE6 : b1;
7DE7 : af;
7DE8 : ad;
7DE9 : 85;
7DEA : 95;
7DEB : 9e;
7DEC : a2;
7DED : aa;
7DEE : 6a;
7DEF : 6a;
7DF0 : 6b;
7DF1 : 5e;
7DF2 : 9d;
7DF3 : 84;
7DF4 : 04;
7DF5 : 04;
7DF6 : 82;
7DF7 : 22;
7DF8 : 86;
7DF9 : 22;
7DFA : 82;
7DFB : 14;
7DFC : 22;
7DFD : 2c;
7DFE : 12;
7DFF : 22;
7E00 : 2a;
7E01 : 14;
7E02 : 22;
7E03 : 2c;
7E04 : 1c;
7E05 : 22;
7E06 : 2c;
7E07 : 14;
7E08 : 22;
7E09 : 2c;
7E0A : 12;
7E0B : 22;
7E0C : 2a;
7E0D : 14;
7E0E : 22;
7E0F : 2c;
7E10 : 1c;
7E11 : 22;
7E12 : 2c;
7E13 : 18;
7E14 : 22;
7E15 : 2a;
7E16 : 16;
7E17 : 20;
7E18 : 28;
7E19 : 18;
7E1A : 22;
7E1B : 2a;
7E1C : 12;
7E1D : 22;
7E1E : 2a;
7E1F : 18;
7E20 : 22;
7E21 : 2a;
7E22 : 12;
7E23 : 22;
7E24 : 2a;
7E25 : 14;
7E26 : 22;
7E27 : 2c;
7E28 : 0c;
7E29 : 22;
7E2A : 2c;
7E2B : 14;
7E2C : 22;
7E2D : 34;
7E2E : 12;
7E2F : 22;
7E30 : 30;
7E31 : 10;
7E32 : 22;
7E33 : 2e;
7E34 : 16;
7E35 : 22;
7E36 : 34;
7E37 : 18;
7E38 : 26;
7E39 : 36;
7E3A : 16;
7E3B : 26;
7E3C : 36;
7E3D : 14;
7E3E : 26;
7E3F : 36;
7E40 : 12;
7E41 : 22;
7E42 : 36;
7E43 : 5c;
7E44 : 22;
7E45 : 34;
7E46 : 0c;
7E47 : 22;
7E48 : 22;
7E49 : 81;
7E4A : 1e;
7E4B : 1e;
7E4C : 85;
7E4D : 1e;
7E4E : 81;
7E4F : 12;
7E50 : 86;
7E51 : 14;
7E52 : 81;
7E53 : 2c;
7E54 : 22;
7E55 : 1c;
7E56 : 2c;
7E57 : 22;
7E58 : 1c;
7E59 : 85;
7E5A : 2c;
7E5B : 04;
7E5C : 81;
7E5D : 2e;
7E5E : 24;
7E5F : 1e;
7E60 : 2e;
7E61 : 24;
7E62 : 1e;
7E63 : 85;
7E64 : 2e;
7E65 : 04;
7E66 : 81;
7E67 : 32;
7E68 : 28;
7E69 : 22;
7E6A : 32;
7E6B : 28;
7E6C : 22;
7E6D : 85;
7E6E : 32;
7E6F : 87;
7E70 : 36;
7E71 : 36;
7E72 : 36;
7E73 : 84;
7E74 : 3a;
7E75 : 00;
7E76 : 5c;
7E77 : 54;
7E78 : 4c;
7E79 : 5c;
7E7A : 54;
7E7B : 4c;
7E7C : 5c;
7E7D : 1c;
7E7E : 1c;
7E7F : 5c;
7E80 : 5c;
7E81 : 5c;
7E82 : 5c;
7E83 : 5e;
7E84 : 56;
7E85 : 4e;
7E86 : 5e;
7E87 : 56;
7E88 : 4e;
7E89 : 5e;
7E8A : 1e;
7E8B : 1e;
7E8C : 5e;
7E8D : 5e;
7E8E : 5e;
7E8F : 5e;
7E90 : 62;
7E91 : 5a;
7E92 : 50;
7E93 : 62;
7E94 : 5a;
7E95 : 50;
7E96 : 62;
7E97 : 22;
7E98 : 22;
7E99 : 62;
7E9A : e7;
7E9B : e7;
7E9C : e7;
7E9D : 2b;
7E9E : 86;
7E9F : 14;
7EA0 : 81;
7EA1 : 14;
7EA2 : 80;
7EA3 : 14;
7EA4 : 14;
7EA5 : 81;
7EA6 : 14;
7EA7 : 14;
7EA8 : 14;
7EA9 : 14;
7EAA : 86;
7EAB : 16;
7EAC : 81;
7EAD : 16;
7EAE : 80;
7EAF : 16;
7EB0 : 16;
7EB1 : 81;
7EB2 : 16;
7EB3 : 16;
7EB4 : 16;
7EB5 : 16;
7EB6 : 81;
7EB7 : 28;
7EB8 : 22;
7EB9 : 1a;
7EBA : 28;
7EBB : 22;
7EBC : 1a;
7EBD : 28;
7EBE : 80;
7EBF : 28;
7EC0 : 28;
7EC1 : 81;
7EC2 : 28;
7EC3 : 87;
7EC4 : 2c;
7EC5 : 2c;
7EC6 : 2c;
7EC7 : 84;
7EC8 : 30;
7EC9 : 83;
7ECA : 04;
7ECB : 84;
7ECC : 0c;
7ECD : 83;
7ECE : 62;
7ECF : 10;
7ED0 : 84;
7ED1 : 12;
7ED2 : 83;
7ED3 : 1c;
7ED4 : 22;
7ED5 : 1e;
7ED6 : 22;
7ED7 : 26;
7ED8 : 18;
7ED9 : 1e;
7EDA : 04;
7EDB : 1c;
7EDC : 00;
7EDD : e3;
7EDE : e1;
7EDF : e3;
7EE0 : 1d;
7EE1 : de;
7EE2 : e0;
7EE3 : 23;
7EE4 : ec;
7EE5 : 75;
7EE6 : 74;
7EE7 : f0;
7EE8 : f4;
7EE9 : f6;
7EEA : ea;
7EEB : 31;
7EEC : 2d;
7EED : 83;
7EEE : 12;
7EEF : 14;
7EF0 : 04;
7EF1 : 18;
7EF2 : 1a;
7EF3 : 1c;
7EF4 : 14;
7EF5 : 26;
7EF6 : 22;
7EF7 : 1e;
7EF8 : 1c;
7EF9 : 18;
7EFA : 1e;
7EFB : 22;
7EFC : 0c;
7EFD : 14;
7EFE : ff;
7EFF : ff;
7F00 : 00;
7F01 : 88;
7F02 : 00;
7F03 : 2b;
7F04 : 00;
7F05 : 00;
7F06 : 02;
7F07 : 72;
7F08 : 02;
7F09 : 4f;
7F0A : 02;
7F0B : 2e;
7F0C : 02;
7F0D : 0e;
7F0E : 01;
7F0F : f1;
7F10 : 01;
7F11 : ba;
7F12 : 01;
7F13 : a1;
7F14 : 01;
7F15 : 8a;
7F16 : 01;
7F17 : 74;
7F18 : 01;
7F19 : 5f;
7F1A : 01;
7F1B : 4b;
7F1C : 01;
7F1D : 39;
7F1E : 01;
7F1F : 27;
7F20 : 01;
7F21 : 17;
7F22 : 01;
7F23 : 07;
7F24 : 00;
7F25 : f8;
7F26 : 00;
7F27 : ea;
7F28 : 00;
7F29 : dd;
7F2A : 00;
7F2B : d1;
7F2C : 00;
7F2D : c5;
7F2E : 00;
7F2F : ba;
7F30 : 00;
7F31 : af;
7F32 : 00;
7F33 : a5;
7F34 : 00;
7F35 : 9c;
7F36 : 00;
7F37 : 94;
7F38 : 00;
7F39 : 8b;
7F3A : 00;
7F3B : 83;
7F3C : 00;
7F3D : 7c;
7F3E : 00;
7F3F : 6e;
7F40 : 00;
7F41 : 74;
7F42 : 00;
7F43 : 68;
7F44 : 00;
7F45 : 4e;
7F46 : 00;
7F47 : 5c;
7F48 : 00;
7F49 : 58;
7F4A : 00;
7F4B : 52;
7F4C : 00;
7F4D : 4a;
7F4E : 00;
7F4F : 42;
7F50 : 00;
7F51 : 3e;
7F52 : 00;
7F53 : 36;
7F54 : 00;
7F55 : 31;
7F56 : 00;
7F57 : 27;
7F58 : 00;
7F59 : 20;
7F5A : 04;
7F5B : 1d;
7F5C : 03;
7F5D : 15;
7F5E : 02;
7F5F : be;
7F60 : 02;
7F61 : 98;
7F62 : 01;
7F63 : d5;
7F64 : 00;
7F65 : 62;
7F66 : 04;
7F67 : 08;
7F68 : 10;
7F69 : 20;
7F6A : 40;
7F6B : 18;
7F6C : 30;
7F6D : 0c;
7F6E : 03;
7F6F : 06;
7F70 : 0c;
7F71 : 18;
7F72 : 30;
7F73 : 12;
7F74 : 24;
7F75 : 08;
7F76 : 03;
7F77 : 06;
7F78 : 0c;
7F79 : 18;
7F7A : 30;
7F7B : 12;
7F7C : 24;
7F7D : 08;
7F7E : 24;
7F7F : 02;
7F80 : 06;
7F81 : 04;
7F82 : 0c;
7F83 : 12;
7F84 : 18;
7F85 : 08;
7F86 : 1b;
7F87 : 01;
7F88 : 05;
7F89 : 03;
7F8A : 09;
7F8B : 0d;
7F8C : 12;
7F8D : 06;
7F8E : 12;
7F8F : 01;
7F90 : 03;
7F91 : 02;
7F92 : 06;
7F93 : 09;
7F94 : 0c;
7F95 : 04;
7F96 : 98;
7F97 : 99;
7F98 : 9a;
7F99 : 9b;
7F9A : 90;
7F9B : 94;
7F9C : 94;
7F9D : 95;
7F9E : 95;
7F9F : 96;
7FA0 : 97;
7FA1 : 98;
7FA2 : 90;
7FA3 : 91;
7FA4 : 92;
7FA5 : 92;
7FA6 : 93;
7FA7 : 93;
7FA8 : 93;
7FA9 : 94;
7FAA : 94;
7FAB : 94;
7FAC : 94;
7FAD : 94;
7FAE : 94;
7FAF : 95;
7FB0 : 95;
7FB1 : 95;
7FB2 : 95;
7FB3 : 95;
7FB4 : 95;
7FB5 : 96;
7FB6 : 96;
7FB7 : 96;
7FB8 : 96;
7FB9 : 96;
7FBA : 96;
7FBB : 96;
7FBC : 96;
7FBD : 96;
7FBE : 96;
7FBF : 96;
7FC0 : 96;
7FC1 : 96;
7FC2 : 96;
7FC3 : 96;
7FC4 : 96;
7FC5 : 96;
7FC6 : 95;
7FC7 : 95;
7FC8 : 94;
7FC9 : 93;
7FCA : 15;
7FCB : 16;
7FCC : 16;
7FCD : 17;
7FCE : 17;
7FCF : 18;
7FD0 : 19;
7FD1 : 19;
7FD2 : 1a;
7FD3 : 1a;
7FD4 : 1c;
7FD5 : 1d;
7FD6 : 1d;
7FD7 : 1e;
7FD8 : 1e;
7FD9 : 1f;
7FDA : 1f;
7FDB : 1f;
7FDC : 1f;
7FDD : 1e;
7FDE : 1d;
7FDF : 1c;
7FE0 : 1e;
7FE1 : 1f;
7FE2 : 1f;
7FE3 : 1e;
7FE4 : 1d;
7FE5 : 1c;
7FE6 : 1a;
7FE7 : 18;
7FE8 : 16;
7FE9 : 14;
7FEA : 15;
7FEB : 16;
7FEC : 16;
7FED : 17;
7FEE : 17;
7FEF : 18;
7FF0 : 19;
7FF1 : 19;
7FF2 : 1a;
7FF3 : 1a;
7FF4 : 1c;
7FF5 : 1d;
7FF6 : 1d;
7FF7 : 1e;
7FF8 : 1e;
7FF9 : 1f;
7FFA : 82;
7FFB : 80;
7FFC : 00;
7FFD : 80;
7FFE : f0;
7FFF : ff;
END;