DEPTH=32768;
WIDTH=8;
ADDRESS_RADIX=HEX;
DATA_RADIX=HEX;
CONTENT
BEGIN
   0 : ff;
   1 : ff;
   2 : ff;
   3 : ff;
   4 : ff;
   5 : ff;
   6 : ff;
   7 : ff;
   8 : ff;
   9 : ff;
   A : ff;
   B : ff;
   C : ff;
   D : ff;
   E : ff;
   F : ff;
  10 : ff;
  11 : ff;
  12 : ff;
  13 : ff;
  14 : ff;
  15 : ff;
  16 : ff;
  17 : ff;
  18 : ff;
  19 : ff;
  1A : ff;
  1B : ff;
  1C : ff;
  1D : ff;
  1E : ff;
  1F : ff;
  20 : ff;
  21 : ff;
  22 : ff;
  23 : ff;
  24 : ff;
  25 : ff;
  26 : ff;
  27 : ff;
  28 : ff;
  29 : ff;
  2A : ff;
  2B : ff;
  2C : ff;
  2D : ff;
  2E : ff;
  2F : ff;
  30 : ff;
  31 : ff;
  32 : ff;
  33 : ff;
  34 : ff;
  35 : ff;
  36 : ff;
  37 : ff;
  38 : ff;
  39 : ff;
  3A : ff;
  3B : ff;
  3C : ff;
  3D : ff;
  3E : ff;
  3F : ff;
  40 : ff;
  41 : ff;
  42 : ff;
  43 : ff;
  44 : ff;
  45 : ff;
  46 : ff;
  47 : ff;
  48 : ff;
  49 : ff;
  4A : ff;
  4B : ff;
  4C : ff;
  4D : ff;
  4E : ff;
  4F : ff;
  50 : ff;
  51 : ff;
  52 : ff;
  53 : ff;
  54 : ff;
  55 : ff;
  56 : ff;
  57 : ff;
  58 : ff;
  59 : ff;
  5A : ff;
  5B : ff;
  5C : ff;
  5D : ff;
  5E : ff;
  5F : ff;
  60 : ff;
  61 : ff;
  62 : ff;
  63 : ff;
  64 : ff;
  65 : ff;
  66 : ff;
  67 : ff;
  68 : ff;
  69 : ff;
  6A : ff;
  6B : ff;
  6C : ff;
  6D : ff;
  6E : ff;
  6F : ff;
  70 : ff;
  71 : ff;
  72 : ff;
  73 : ff;
  74 : ff;
  75 : ff;
  76 : ff;
  77 : ff;
  78 : ff;
  79 : ff;
  7A : ff;
  7B : ff;
  7C : ff;
  7D : ff;
  7E : ff;
  7F : ff;
  80 : ff;
  81 : ff;
  82 : ff;
  83 : ff;
  84 : ff;
  85 : ff;
  86 : ff;
  87 : ff;
  88 : ff;
  89 : ff;
  8A : ff;
  8B : ff;
  8C : ff;
  8D : ff;
  8E : ff;
  8F : ff;
  90 : ff;
  91 : ff;
  92 : ff;
  93 : ff;
  94 : ff;
  95 : ff;
  96 : ff;
  97 : ff;
  98 : ff;
  99 : ff;
  9A : ff;
  9B : ff;
  9C : ff;
  9D : ff;
  9E : ff;
  9F : ff;
  A0 : ff;
  A1 : ff;
  A2 : ff;
  A3 : ff;
  A4 : ff;
  A5 : ff;
  A6 : ff;
  A7 : ff;
  A8 : ff;
  A9 : ff;
  AA : ff;
  AB : ff;
  AC : ff;
  AD : ff;
  AE : ff;
  AF : ff;
  B0 : ff;
  B1 : ff;
  B2 : ff;
  B3 : ff;
  B4 : ff;
  B5 : ff;
  B6 : ff;
  B7 : ff;
  B8 : ff;
  B9 : ff;
  BA : ff;
  BB : ff;
  BC : ff;
  BD : ff;
  BE : ff;
  BF : ff;
  C0 : ff;
  C1 : ff;
  C2 : ff;
  C3 : ff;
  C4 : ff;
  C5 : ff;
  C6 : ff;
  C7 : ff;
  C8 : ff;
  C9 : ff;
  CA : ff;
  CB : ff;
  CC : ff;
  CD : ff;
  CE : ff;
  CF : ff;
  D0 : ff;
  D1 : ff;
  D2 : ff;
  D3 : ff;
  D4 : ff;
  D5 : ff;
  D6 : ff;
  D7 : ff;
  D8 : ff;
  D9 : ff;
  DA : ff;
  DB : ff;
  DC : ff;
  DD : ff;
  DE : ff;
  DF : ff;
  E0 : ff;
  E1 : ff;
  E2 : ff;
  E3 : ff;
  E4 : ff;
  E5 : ff;
  E6 : ff;
  E7 : ff;
  E8 : ff;
  E9 : ff;
  EA : ff;
  EB : ff;
  EC : ff;
  ED : ff;
  EE : ff;
  EF : ff;
  F0 : ff;
  F1 : ff;
  F2 : ff;
  F3 : ff;
  F4 : ff;
  F5 : ff;
  F6 : ff;
  F7 : ff;
  F8 : ff;
  F9 : ff;
  FA : ff;
  FB : ff;
  FC : ff;
  FD : ff;
  FE : ff;
  FF : ff;
 100 : ff;
 101 : ff;
 102 : ff;
 103 : ff;
 104 : ff;
 105 : ff;
 106 : ff;
 107 : ff;
 108 : ff;
 109 : ff;
 10A : ff;
 10B : ff;
 10C : ff;
 10D : ff;
 10E : ff;
 10F : ff;
 110 : ff;
 111 : ff;
 112 : ff;
 113 : ff;
 114 : ff;
 115 : ff;
 116 : ff;
 117 : ff;
 118 : ff;
 119 : ff;
 11A : ff;
 11B : ff;
 11C : ff;
 11D : ff;
 11E : ff;
 11F : ff;
 120 : ff;
 121 : ff;
 122 : ff;
 123 : ff;
 124 : ff;
 125 : ff;
 126 : ff;
 127 : ff;
 128 : ff;
 129 : ff;
 12A : ff;
 12B : ff;
 12C : ff;
 12D : ff;
 12E : ff;
 12F : ff;
 130 : ff;
 131 : ff;
 132 : ff;
 133 : ff;
 134 : ff;
 135 : ff;
 136 : ff;
 137 : ff;
 138 : ff;
 139 : ff;
 13A : ff;
 13B : ff;
 13C : ff;
 13D : ff;
 13E : ff;
 13F : ff;
 140 : ff;
 141 : ff;
 142 : ff;
 143 : ff;
 144 : ff;
 145 : ff;
 146 : ff;
 147 : ff;
 148 : ff;
 149 : ff;
 14A : ff;
 14B : ff;
 14C : ff;
 14D : ff;
 14E : ff;
 14F : ff;
 150 : ff;
 151 : ff;
 152 : ff;
 153 : ff;
 154 : ff;
 155 : ff;
 156 : ff;
 157 : ff;
 158 : ff;
 159 : ff;
 15A : ff;
 15B : ff;
 15C : ff;
 15D : ff;
 15E : ff;
 15F : ff;
 160 : ff;
 161 : ff;
 162 : ff;
 163 : ff;
 164 : ff;
 165 : ff;
 166 : ff;
 167 : ff;
 168 : ff;
 169 : ff;
 16A : ff;
 16B : ff;
 16C : ff;
 16D : ff;
 16E : ff;
 16F : ff;
 170 : ff;
 171 : ff;
 172 : ff;
 173 : ff;
 174 : ff;
 175 : ff;
 176 : ff;
 177 : ff;
 178 : ff;
 179 : ff;
 17A : ff;
 17B : ff;
 17C : ff;
 17D : ff;
 17E : ff;
 17F : ff;
 180 : ff;
 181 : ff;
 182 : ff;
 183 : ff;
 184 : ff;
 185 : ff;
 186 : ff;
 187 : ff;
 188 : ff;
 189 : ff;
 18A : ff;
 18B : ff;
 18C : ff;
 18D : ff;
 18E : ff;
 18F : ff;
 190 : ff;
 191 : ff;
 192 : ff;
 193 : ff;
 194 : ff;
 195 : ff;
 196 : ff;
 197 : ff;
 198 : ff;
 199 : ff;
 19A : ff;
 19B : ff;
 19C : ff;
 19D : ff;
 19E : ff;
 19F : ff;
 1A0 : ff;
 1A1 : ff;
 1A2 : ff;
 1A3 : ff;
 1A4 : ff;
 1A5 : ff;
 1A6 : ff;
 1A7 : ff;
 1A8 : ff;
 1A9 : ff;
 1AA : ff;
 1AB : ff;
 1AC : ff;
 1AD : ff;
 1AE : ff;
 1AF : ff;
 1B0 : ff;
 1B1 : ff;
 1B2 : ff;
 1B3 : ff;
 1B4 : ff;
 1B5 : ff;
 1B6 : ff;
 1B7 : ff;
 1B8 : ff;
 1B9 : ff;
 1BA : ff;
 1BB : ff;
 1BC : ff;
 1BD : ff;
 1BE : ff;
 1BF : ff;
 1C0 : ff;
 1C1 : ff;
 1C2 : ff;
 1C3 : ff;
 1C4 : ff;
 1C5 : ff;
 1C6 : ff;
 1C7 : ff;
 1C8 : ff;
 1C9 : ff;
 1CA : ff;
 1CB : ff;
 1CC : ff;
 1CD : ff;
 1CE : ff;
 1CF : ff;
 1D0 : ff;
 1D1 : ff;
 1D2 : ff;
 1D3 : ff;
 1D4 : ff;
 1D5 : ff;
 1D6 : ff;
 1D7 : ff;
 1D8 : ff;
 1D9 : ff;
 1DA : ff;
 1DB : ff;
 1DC : ff;
 1DD : ff;
 1DE : ff;
 1DF : ff;
 1E0 : ff;
 1E1 : ff;
 1E2 : ff;
 1E3 : ff;
 1E4 : ff;
 1E5 : ff;
 1E6 : ff;
 1E7 : ff;
 1E8 : ff;
 1E9 : ff;
 1EA : ff;
 1EB : ff;
 1EC : ff;
 1ED : ff;
 1EE : ff;
 1EF : ff;
 1F0 : ff;
 1F1 : ff;
 1F2 : ff;
 1F3 : ff;
 1F4 : ff;
 1F5 : ff;
 1F6 : ff;
 1F7 : ff;
 1F8 : ff;
 1F9 : ff;
 1FA : ff;
 1FB : ff;
 1FC : ff;
 1FD : ff;
 1FE : ff;
 1FF : ff;
 200 : ff;
 201 : ff;
 202 : ff;
 203 : ff;
 204 : ff;
 205 : ff;
 206 : ff;
 207 : ff;
 208 : ff;
 209 : ff;
 20A : ff;
 20B : ff;
 20C : ff;
 20D : ff;
 20E : ff;
 20F : ff;
 210 : ff;
 211 : ff;
 212 : ff;
 213 : ff;
 214 : ff;
 215 : ff;
 216 : ff;
 217 : ff;
 218 : ff;
 219 : ff;
 21A : ff;
 21B : ff;
 21C : ff;
 21D : ff;
 21E : ff;
 21F : ff;
 220 : ff;
 221 : ff;
 222 : ff;
 223 : ff;
 224 : ff;
 225 : ff;
 226 : ff;
 227 : ff;
 228 : ff;
 229 : ff;
 22A : ff;
 22B : ff;
 22C : ff;
 22D : ff;
 22E : ff;
 22F : ff;
 230 : ff;
 231 : ff;
 232 : ff;
 233 : ff;
 234 : ff;
 235 : ff;
 236 : ff;
 237 : ff;
 238 : ff;
 239 : ff;
 23A : ff;
 23B : ff;
 23C : ff;
 23D : ff;
 23E : ff;
 23F : ff;
 240 : ff;
 241 : ff;
 242 : ff;
 243 : ff;
 244 : ff;
 245 : ff;
 246 : ff;
 247 : ff;
 248 : ff;
 249 : ff;
 24A : ff;
 24B : ff;
 24C : ff;
 24D : ff;
 24E : ff;
 24F : ff;
 250 : ff;
 251 : ff;
 252 : ff;
 253 : ff;
 254 : ff;
 255 : ff;
 256 : ff;
 257 : ff;
 258 : ff;
 259 : ff;
 25A : ff;
 25B : ff;
 25C : ff;
 25D : ff;
 25E : ff;
 25F : ff;
 260 : ff;
 261 : ff;
 262 : ff;
 263 : ff;
 264 : ff;
 265 : ff;
 266 : ff;
 267 : ff;
 268 : ff;
 269 : ff;
 26A : ff;
 26B : ff;
 26C : ff;
 26D : ff;
 26E : ff;
 26F : ff;
 270 : ff;
 271 : ff;
 272 : ff;
 273 : ff;
 274 : ff;
 275 : ff;
 276 : ff;
 277 : ff;
 278 : ff;
 279 : ff;
 27A : ff;
 27B : ff;
 27C : ff;
 27D : ff;
 27E : ff;
 27F : ff;
 280 : ff;
 281 : ff;
 282 : ff;
 283 : ff;
 284 : ff;
 285 : ff;
 286 : ff;
 287 : ff;
 288 : ff;
 289 : ff;
 28A : ff;
 28B : ff;
 28C : ff;
 28D : ff;
 28E : ff;
 28F : ff;
 290 : ff;
 291 : ff;
 292 : ff;
 293 : ff;
 294 : ff;
 295 : ff;
 296 : ff;
 297 : ff;
 298 : ff;
 299 : ff;
 29A : ff;
 29B : ff;
 29C : ff;
 29D : ff;
 29E : ff;
 29F : ff;
 2A0 : ff;
 2A1 : ff;
 2A2 : ff;
 2A3 : ff;
 2A4 : ff;
 2A5 : ff;
 2A6 : ff;
 2A7 : ff;
 2A8 : ff;
 2A9 : ff;
 2AA : ff;
 2AB : ff;
 2AC : ff;
 2AD : ff;
 2AE : ff;
 2AF : ff;
 2B0 : ff;
 2B1 : ff;
 2B2 : ff;
 2B3 : ff;
 2B4 : ff;
 2B5 : ff;
 2B6 : ff;
 2B7 : ff;
 2B8 : ff;
 2B9 : ff;
 2BA : ff;
 2BB : ff;
 2BC : ff;
 2BD : ff;
 2BE : ff;
 2BF : ff;
 2C0 : ff;
 2C1 : ff;
 2C2 : ff;
 2C3 : ff;
 2C4 : ff;
 2C5 : ff;
 2C6 : ff;
 2C7 : ff;
 2C8 : ff;
 2C9 : ff;
 2CA : ff;
 2CB : ff;
 2CC : ff;
 2CD : ff;
 2CE : ff;
 2CF : ff;
 2D0 : ff;
 2D1 : ff;
 2D2 : ff;
 2D3 : ff;
 2D4 : ff;
 2D5 : ff;
 2D6 : ff;
 2D7 : ff;
 2D8 : ff;
 2D9 : ff;
 2DA : ff;
 2DB : ff;
 2DC : ff;
 2DD : ff;
 2DE : ff;
 2DF : ff;
 2E0 : ff;
 2E1 : ff;
 2E2 : ff;
 2E3 : ff;
 2E4 : ff;
 2E5 : ff;
 2E6 : ff;
 2E7 : ff;
 2E8 : ff;
 2E9 : ff;
 2EA : ff;
 2EB : ff;
 2EC : ff;
 2ED : ff;
 2EE : ff;
 2EF : ff;
 2F0 : ff;
 2F1 : ff;
 2F2 : ff;
 2F3 : ff;
 2F4 : ff;
 2F5 : ff;
 2F6 : ff;
 2F7 : ff;
 2F8 : ff;
 2F9 : ff;
 2FA : ff;
 2FB : ff;
 2FC : ff;
 2FD : ff;
 2FE : ff;
 2FF : ff;
 300 : ff;
 301 : ff;
 302 : ff;
 303 : ff;
 304 : ff;
 305 : ff;
 306 : ff;
 307 : ff;
 308 : ff;
 309 : ff;
 30A : ff;
 30B : ff;
 30C : ff;
 30D : ff;
 30E : ff;
 30F : ff;
 310 : ff;
 311 : ff;
 312 : ff;
 313 : ff;
 314 : ff;
 315 : ff;
 316 : ff;
 317 : ff;
 318 : ff;
 319 : ff;
 31A : ff;
 31B : ff;
 31C : ff;
 31D : ff;
 31E : ff;
 31F : ff;
 320 : ff;
 321 : ff;
 322 : ff;
 323 : ff;
 324 : ff;
 325 : ff;
 326 : ff;
 327 : ff;
 328 : ff;
 329 : ff;
 32A : ff;
 32B : ff;
 32C : ff;
 32D : ff;
 32E : ff;
 32F : ff;
 330 : ff;
 331 : ff;
 332 : ff;
 333 : ff;
 334 : ff;
 335 : ff;
 336 : ff;
 337 : ff;
 338 : ff;
 339 : ff;
 33A : ff;
 33B : ff;
 33C : ff;
 33D : ff;
 33E : ff;
 33F : ff;
 340 : ff;
 341 : ff;
 342 : ff;
 343 : ff;
 344 : ff;
 345 : ff;
 346 : ff;
 347 : ff;
 348 : ff;
 349 : ff;
 34A : ff;
 34B : ff;
 34C : ff;
 34D : ff;
 34E : ff;
 34F : ff;
 350 : ff;
 351 : ff;
 352 : ff;
 353 : ff;
 354 : ff;
 355 : ff;
 356 : ff;
 357 : ff;
 358 : ff;
 359 : ff;
 35A : ff;
 35B : ff;
 35C : ff;
 35D : ff;
 35E : ff;
 35F : ff;
 360 : ff;
 361 : ff;
 362 : ff;
 363 : ff;
 364 : ff;
 365 : ff;
 366 : ff;
 367 : ff;
 368 : ff;
 369 : ff;
 36A : ff;
 36B : ff;
 36C : ff;
 36D : ff;
 36E : ff;
 36F : ff;
 370 : ff;
 371 : ff;
 372 : ff;
 373 : ff;
 374 : ff;
 375 : ff;
 376 : ff;
 377 : ff;
 378 : ff;
 379 : ff;
 37A : ff;
 37B : ff;
 37C : ff;
 37D : ff;
 37E : ff;
 37F : ff;
 380 : ff;
 381 : ff;
 382 : ff;
 383 : ff;
 384 : ff;
 385 : ff;
 386 : ff;
 387 : ff;
 388 : ff;
 389 : ff;
 38A : ff;
 38B : ff;
 38C : ff;
 38D : ff;
 38E : ff;
 38F : ff;
 390 : ff;
 391 : ff;
 392 : ff;
 393 : ff;
 394 : ff;
 395 : ff;
 396 : ff;
 397 : ff;
 398 : ff;
 399 : ff;
 39A : ff;
 39B : ff;
 39C : ff;
 39D : ff;
 39E : ff;
 39F : ff;
 3A0 : ff;
 3A1 : ff;
 3A2 : ff;
 3A3 : ff;
 3A4 : ff;
 3A5 : ff;
 3A6 : ff;
 3A7 : ff;
 3A8 : ff;
 3A9 : ff;
 3AA : ff;
 3AB : ff;
 3AC : ff;
 3AD : ff;
 3AE : ff;
 3AF : ff;
 3B0 : ff;
 3B1 : ff;
 3B2 : ff;
 3B3 : ff;
 3B4 : ff;
 3B5 : ff;
 3B6 : ff;
 3B7 : ff;
 3B8 : ff;
 3B9 : ff;
 3BA : ff;
 3BB : ff;
 3BC : ff;
 3BD : ff;
 3BE : ff;
 3BF : ff;
 3C0 : ff;
 3C1 : ff;
 3C2 : ff;
 3C3 : ff;
 3C4 : ff;
 3C5 : ff;
 3C6 : ff;
 3C7 : ff;
 3C8 : ff;
 3C9 : ff;
 3CA : ff;
 3CB : ff;
 3CC : ff;
 3CD : ff;
 3CE : ff;
 3CF : ff;
 3D0 : ff;
 3D1 : ff;
 3D2 : ff;
 3D3 : ff;
 3D4 : ff;
 3D5 : ff;
 3D6 : ff;
 3D7 : ff;
 3D8 : ff;
 3D9 : ff;
 3DA : ff;
 3DB : ff;
 3DC : ff;
 3DD : ff;
 3DE : ff;
 3DF : ff;
 3E0 : ff;
 3E1 : ff;
 3E2 : ff;
 3E3 : ff;
 3E4 : ff;
 3E5 : ff;
 3E6 : ff;
 3E7 : ff;
 3E8 : ff;
 3E9 : ff;
 3EA : ff;
 3EB : ff;
 3EC : ff;
 3ED : ff;
 3EE : ff;
 3EF : ff;
 3F0 : ff;
 3F1 : ff;
 3F2 : ff;
 3F3 : ff;
 3F4 : ff;
 3F5 : ff;
 3F6 : ff;
 3F7 : ff;
 3F8 : ff;
 3F9 : ff;
 3FA : ff;
 3FB : ff;
 3FC : ff;
 3FD : ff;
 3FE : ff;
 3FF : ff;
 400 : ff;
 401 : ff;
 402 : ff;
 403 : ff;
 404 : ff;
 405 : ff;
 406 : ff;
 407 : ff;
 408 : ff;
 409 : ff;
 40A : ff;
 40B : ff;
 40C : ff;
 40D : ff;
 40E : ff;
 40F : ff;
 410 : ff;
 411 : ff;
 412 : ff;
 413 : ff;
 414 : ff;
 415 : ff;
 416 : ff;
 417 : ff;
 418 : ff;
 419 : ff;
 41A : ff;
 41B : ff;
 41C : ff;
 41D : ff;
 41E : ff;
 41F : ff;
 420 : ff;
 421 : ff;
 422 : ff;
 423 : ff;
 424 : ff;
 425 : ff;
 426 : ff;
 427 : ff;
 428 : ff;
 429 : ff;
 42A : ff;
 42B : ff;
 42C : ff;
 42D : ff;
 42E : ff;
 42F : ff;
 430 : ff;
 431 : ff;
 432 : ff;
 433 : ff;
 434 : ff;
 435 : ff;
 436 : ff;
 437 : ff;
 438 : ff;
 439 : ff;
 43A : ff;
 43B : ff;
 43C : ff;
 43D : ff;
 43E : ff;
 43F : ff;
 440 : ff;
 441 : ff;
 442 : ff;
 443 : ff;
 444 : ff;
 445 : ff;
 446 : ff;
 447 : ff;
 448 : ff;
 449 : ff;
 44A : ff;
 44B : ff;
 44C : ff;
 44D : ff;
 44E : ff;
 44F : ff;
 450 : ff;
 451 : ff;
 452 : ff;
 453 : ff;
 454 : ff;
 455 : ff;
 456 : ff;
 457 : ff;
 458 : ff;
 459 : ff;
 45A : ff;
 45B : ff;
 45C : ff;
 45D : ff;
 45E : ff;
 45F : ff;
 460 : ff;
 461 : ff;
 462 : ff;
 463 : ff;
 464 : ff;
 465 : ff;
 466 : ff;
 467 : ff;
 468 : ff;
 469 : ff;
 46A : ff;
 46B : ff;
 46C : ff;
 46D : ff;
 46E : ff;
 46F : ff;
 470 : ff;
 471 : ff;
 472 : ff;
 473 : ff;
 474 : ff;
 475 : ff;
 476 : ff;
 477 : ff;
 478 : ff;
 479 : ff;
 47A : ff;
 47B : ff;
 47C : ff;
 47D : ff;
 47E : ff;
 47F : ff;
 480 : ff;
 481 : ff;
 482 : ff;
 483 : ff;
 484 : ff;
 485 : ff;
 486 : ff;
 487 : ff;
 488 : ff;
 489 : ff;
 48A : ff;
 48B : ff;
 48C : ff;
 48D : ff;
 48E : ff;
 48F : ff;
 490 : ff;
 491 : ff;
 492 : ff;
 493 : ff;
 494 : ff;
 495 : ff;
 496 : ff;
 497 : ff;
 498 : ff;
 499 : ff;
 49A : ff;
 49B : ff;
 49C : ff;
 49D : ff;
 49E : ff;
 49F : ff;
 4A0 : ff;
 4A1 : ff;
 4A2 : ff;
 4A3 : ff;
 4A4 : ff;
 4A5 : ff;
 4A6 : ff;
 4A7 : ff;
 4A8 : ff;
 4A9 : ff;
 4AA : ff;
 4AB : ff;
 4AC : ff;
 4AD : ff;
 4AE : ff;
 4AF : ff;
 4B0 : ff;
 4B1 : ff;
 4B2 : ff;
 4B3 : ff;
 4B4 : ff;
 4B5 : ff;
 4B6 : ff;
 4B7 : ff;
 4B8 : ff;
 4B9 : ff;
 4BA : ff;
 4BB : ff;
 4BC : ff;
 4BD : ff;
 4BE : ff;
 4BF : ff;
 4C0 : ff;
 4C1 : ff;
 4C2 : ff;
 4C3 : ff;
 4C4 : ff;
 4C5 : ff;
 4C6 : ff;
 4C7 : ff;
 4C8 : ff;
 4C9 : ff;
 4CA : ff;
 4CB : ff;
 4CC : ff;
 4CD : ff;
 4CE : ff;
 4CF : ff;
 4D0 : ff;
 4D1 : ff;
 4D2 : ff;
 4D3 : ff;
 4D4 : ff;
 4D5 : ff;
 4D6 : ff;
 4D7 : ff;
 4D8 : ff;
 4D9 : ff;
 4DA : ff;
 4DB : ff;
 4DC : ff;
 4DD : ff;
 4DE : ff;
 4DF : ff;
 4E0 : ff;
 4E1 : ff;
 4E2 : ff;
 4E3 : ff;
 4E4 : ff;
 4E5 : ff;
 4E6 : ff;
 4E7 : ff;
 4E8 : ff;
 4E9 : ff;
 4EA : ff;
 4EB : ff;
 4EC : ff;
 4ED : ff;
 4EE : ff;
 4EF : ff;
 4F0 : ff;
 4F1 : ff;
 4F2 : ff;
 4F3 : ff;
 4F4 : ff;
 4F5 : ff;
 4F6 : ff;
 4F7 : ff;
 4F8 : ff;
 4F9 : ff;
 4FA : ff;
 4FB : ff;
 4FC : ff;
 4FD : ff;
 4FE : ff;
 4FF : ff;
 500 : ff;
 501 : ff;
 502 : ff;
 503 : ff;
 504 : ff;
 505 : ff;
 506 : ff;
 507 : ff;
 508 : ff;
 509 : ff;
 50A : ff;
 50B : ff;
 50C : ff;
 50D : ff;
 50E : ff;
 50F : ff;
 510 : ff;
 511 : ff;
 512 : ff;
 513 : ff;
 514 : ff;
 515 : ff;
 516 : ff;
 517 : ff;
 518 : ff;
 519 : ff;
 51A : ff;
 51B : ff;
 51C : ff;
 51D : ff;
 51E : ff;
 51F : ff;
 520 : ff;
 521 : ff;
 522 : ff;
 523 : ff;
 524 : ff;
 525 : ff;
 526 : ff;
 527 : ff;
 528 : ff;
 529 : ff;
 52A : ff;
 52B : ff;
 52C : ff;
 52D : ff;
 52E : ff;
 52F : ff;
 530 : ff;
 531 : ff;
 532 : ff;
 533 : ff;
 534 : ff;
 535 : ff;
 536 : ff;
 537 : ff;
 538 : ff;
 539 : ff;
 53A : ff;
 53B : ff;
 53C : ff;
 53D : ff;
 53E : ff;
 53F : ff;
 540 : ff;
 541 : ff;
 542 : ff;
 543 : ff;
 544 : ff;
 545 : ff;
 546 : ff;
 547 : ff;
 548 : ff;
 549 : ff;
 54A : ff;
 54B : ff;
 54C : ff;
 54D : ff;
 54E : ff;
 54F : ff;
 550 : ff;
 551 : ff;
 552 : ff;
 553 : ff;
 554 : ff;
 555 : ff;
 556 : ff;
 557 : ff;
 558 : ff;
 559 : ff;
 55A : ff;
 55B : ff;
 55C : ff;
 55D : ff;
 55E : ff;
 55F : ff;
 560 : ff;
 561 : ff;
 562 : ff;
 563 : ff;
 564 : ff;
 565 : ff;
 566 : ff;
 567 : ff;
 568 : ff;
 569 : ff;
 56A : ff;
 56B : ff;
 56C : ff;
 56D : ff;
 56E : ff;
 56F : ff;
 570 : ff;
 571 : ff;
 572 : ff;
 573 : ff;
 574 : ff;
 575 : ff;
 576 : ff;
 577 : ff;
 578 : ff;
 579 : ff;
 57A : ff;
 57B : ff;
 57C : ff;
 57D : ff;
 57E : ff;
 57F : ff;
 580 : ff;
 581 : ff;
 582 : ff;
 583 : ff;
 584 : ff;
 585 : ff;
 586 : ff;
 587 : ff;
 588 : ff;
 589 : ff;
 58A : ff;
 58B : ff;
 58C : ff;
 58D : ff;
 58E : ff;
 58F : ff;
 590 : ff;
 591 : ff;
 592 : ff;
 593 : ff;
 594 : ff;
 595 : ff;
 596 : ff;
 597 : ff;
 598 : ff;
 599 : ff;
 59A : ff;
 59B : ff;
 59C : ff;
 59D : ff;
 59E : ff;
 59F : ff;
 5A0 : ff;
 5A1 : ff;
 5A2 : ff;
 5A3 : ff;
 5A4 : ff;
 5A5 : ff;
 5A6 : ff;
 5A7 : ff;
 5A8 : ff;
 5A9 : ff;
 5AA : ff;
 5AB : ff;
 5AC : ff;
 5AD : ff;
 5AE : ff;
 5AF : ff;
 5B0 : ff;
 5B1 : ff;
 5B2 : ff;
 5B3 : ff;
 5B4 : ff;
 5B5 : ff;
 5B6 : ff;
 5B7 : ff;
 5B8 : ff;
 5B9 : ff;
 5BA : ff;
 5BB : ff;
 5BC : ff;
 5BD : ff;
 5BE : ff;
 5BF : ff;
 5C0 : ff;
 5C1 : ff;
 5C2 : ff;
 5C3 : ff;
 5C4 : ff;
 5C5 : ff;
 5C6 : ff;
 5C7 : ff;
 5C8 : ff;
 5C9 : ff;
 5CA : ff;
 5CB : ff;
 5CC : ff;
 5CD : ff;
 5CE : ff;
 5CF : ff;
 5D0 : ff;
 5D1 : ff;
 5D2 : ff;
 5D3 : ff;
 5D4 : ff;
 5D5 : ff;
 5D6 : ff;
 5D7 : ff;
 5D8 : ff;
 5D9 : ff;
 5DA : ff;
 5DB : ff;
 5DC : ff;
 5DD : ff;
 5DE : ff;
 5DF : ff;
 5E0 : ff;
 5E1 : ff;
 5E2 : ff;
 5E3 : ff;
 5E4 : ff;
 5E5 : ff;
 5E6 : ff;
 5E7 : ff;
 5E8 : ff;
 5E9 : ff;
 5EA : ff;
 5EB : ff;
 5EC : ff;
 5ED : ff;
 5EE : ff;
 5EF : ff;
 5F0 : ff;
 5F1 : ff;
 5F2 : ff;
 5F3 : ff;
 5F4 : ff;
 5F5 : ff;
 5F6 : ff;
 5F7 : ff;
 5F8 : ff;
 5F9 : ff;
 5FA : ff;
 5FB : ff;
 5FC : ff;
 5FD : ff;
 5FE : ff;
 5FF : ff;
 600 : ff;
 601 : ff;
 602 : ff;
 603 : ff;
 604 : ff;
 605 : ff;
 606 : ff;
 607 : ff;
 608 : ff;
 609 : ff;
 60A : ff;
 60B : ff;
 60C : ff;
 60D : ff;
 60E : ff;
 60F : ff;
 610 : ff;
 611 : ff;
 612 : ff;
 613 : ff;
 614 : ff;
 615 : ff;
 616 : ff;
 617 : ff;
 618 : ff;
 619 : ff;
 61A : ff;
 61B : ff;
 61C : ff;
 61D : ff;
 61E : ff;
 61F : ff;
 620 : ff;
 621 : ff;
 622 : ff;
 623 : ff;
 624 : ff;
 625 : ff;
 626 : ff;
 627 : ff;
 628 : ff;
 629 : ff;
 62A : ff;
 62B : ff;
 62C : ff;
 62D : ff;
 62E : ff;
 62F : ff;
 630 : ff;
 631 : ff;
 632 : ff;
 633 : ff;
 634 : ff;
 635 : ff;
 636 : ff;
 637 : ff;
 638 : ff;
 639 : ff;
 63A : ff;
 63B : ff;
 63C : ff;
 63D : ff;
 63E : ff;
 63F : ff;
 640 : ff;
 641 : ff;
 642 : ff;
 643 : ff;
 644 : ff;
 645 : ff;
 646 : ff;
 647 : ff;
 648 : ff;
 649 : ff;
 64A : ff;
 64B : ff;
 64C : ff;
 64D : ff;
 64E : ff;
 64F : ff;
 650 : ff;
 651 : ff;
 652 : ff;
 653 : ff;
 654 : ff;
 655 : ff;
 656 : ff;
 657 : ff;
 658 : ff;
 659 : ff;
 65A : ff;
 65B : ff;
 65C : ff;
 65D : ff;
 65E : ff;
 65F : ff;
 660 : ff;
 661 : ff;
 662 : ff;
 663 : ff;
 664 : ff;
 665 : ff;
 666 : ff;
 667 : ff;
 668 : ff;
 669 : ff;
 66A : ff;
 66B : ff;
 66C : ff;
 66D : ff;
 66E : ff;
 66F : ff;
 670 : ff;
 671 : ff;
 672 : ff;
 673 : ff;
 674 : ff;
 675 : ff;
 676 : ff;
 677 : ff;
 678 : ff;
 679 : ff;
 67A : ff;
 67B : ff;
 67C : ff;
 67D : ff;
 67E : ff;
 67F : ff;
 680 : ff;
 681 : ff;
 682 : ff;
 683 : ff;
 684 : ff;
 685 : ff;
 686 : ff;
 687 : ff;
 688 : ff;
 689 : ff;
 68A : ff;
 68B : ff;
 68C : ff;
 68D : ff;
 68E : ff;
 68F : ff;
 690 : ff;
 691 : ff;
 692 : ff;
 693 : ff;
 694 : ff;
 695 : ff;
 696 : ff;
 697 : ff;
 698 : ff;
 699 : ff;
 69A : ff;
 69B : ff;
 69C : ff;
 69D : ff;
 69E : ff;
 69F : ff;
 6A0 : ff;
 6A1 : ff;
 6A2 : ff;
 6A3 : ff;
 6A4 : ff;
 6A5 : ff;
 6A6 : ff;
 6A7 : ff;
 6A8 : ff;
 6A9 : ff;
 6AA : ff;
 6AB : ff;
 6AC : ff;
 6AD : ff;
 6AE : ff;
 6AF : ff;
 6B0 : ff;
 6B1 : ff;
 6B2 : ff;
 6B3 : ff;
 6B4 : ff;
 6B5 : ff;
 6B6 : ff;
 6B7 : ff;
 6B8 : ff;
 6B9 : ff;
 6BA : ff;
 6BB : ff;
 6BC : ff;
 6BD : ff;
 6BE : ff;
 6BF : ff;
 6C0 : ff;
 6C1 : ff;
 6C2 : ff;
 6C3 : ff;
 6C4 : ff;
 6C5 : ff;
 6C6 : ff;
 6C7 : ff;
 6C8 : ff;
 6C9 : ff;
 6CA : ff;
 6CB : ff;
 6CC : ff;
 6CD : ff;
 6CE : ff;
 6CF : ff;
 6D0 : ff;
 6D1 : ff;
 6D2 : ff;
 6D3 : ff;
 6D4 : ff;
 6D5 : ff;
 6D6 : ff;
 6D7 : ff;
 6D8 : ff;
 6D9 : ff;
 6DA : ff;
 6DB : ff;
 6DC : ff;
 6DD : ff;
 6DE : ff;
 6DF : ff;
 6E0 : ff;
 6E1 : ff;
 6E2 : ff;
 6E3 : ff;
 6E4 : ff;
 6E5 : ff;
 6E6 : ff;
 6E7 : ff;
 6E8 : ff;
 6E9 : ff;
 6EA : ff;
 6EB : ff;
 6EC : ff;
 6ED : ff;
 6EE : ff;
 6EF : ff;
 6F0 : ff;
 6F1 : ff;
 6F2 : ff;
 6F3 : ff;
 6F4 : ff;
 6F5 : ff;
 6F6 : ff;
 6F7 : ff;
 6F8 : ff;
 6F9 : ff;
 6FA : ff;
 6FB : ff;
 6FC : ff;
 6FD : ff;
 6FE : ff;
 6FF : ff;
 700 : ff;
 701 : ff;
 702 : ff;
 703 : ff;
 704 : ff;
 705 : ff;
 706 : ff;
 707 : ff;
 708 : ff;
 709 : ff;
 70A : ff;
 70B : ff;
 70C : ff;
 70D : ff;
 70E : ff;
 70F : ff;
 710 : ff;
 711 : ff;
 712 : ff;
 713 : ff;
 714 : ff;
 715 : ff;
 716 : ff;
 717 : ff;
 718 : ff;
 719 : ff;
 71A : ff;
 71B : ff;
 71C : ff;
 71D : ff;
 71E : ff;
 71F : ff;
 720 : ff;
 721 : ff;
 722 : ff;
 723 : ff;
 724 : ff;
 725 : ff;
 726 : ff;
 727 : ff;
 728 : ff;
 729 : ff;
 72A : ff;
 72B : ff;
 72C : ff;
 72D : ff;
 72E : ff;
 72F : ff;
 730 : ff;
 731 : ff;
 732 : ff;
 733 : ff;
 734 : ff;
 735 : ff;
 736 : ff;
 737 : ff;
 738 : ff;
 739 : ff;
 73A : ff;
 73B : ff;
 73C : ff;
 73D : ff;
 73E : ff;
 73F : ff;
 740 : ff;
 741 : ff;
 742 : ff;
 743 : ff;
 744 : ff;
 745 : ff;
 746 : ff;
 747 : ff;
 748 : ff;
 749 : ff;
 74A : ff;
 74B : ff;
 74C : ff;
 74D : ff;
 74E : ff;
 74F : ff;
 750 : ff;
 751 : ff;
 752 : ff;
 753 : ff;
 754 : ff;
 755 : ff;
 756 : ff;
 757 : ff;
 758 : ff;
 759 : ff;
 75A : ff;
 75B : ff;
 75C : ff;
 75D : ff;
 75E : ff;
 75F : ff;
 760 : ff;
 761 : ff;
 762 : ff;
 763 : ff;
 764 : ff;
 765 : ff;
 766 : ff;
 767 : ff;
 768 : ff;
 769 : ff;
 76A : ff;
 76B : ff;
 76C : ff;
 76D : ff;
 76E : ff;
 76F : ff;
 770 : ff;
 771 : ff;
 772 : ff;
 773 : ff;
 774 : ff;
 775 : ff;
 776 : ff;
 777 : ff;
 778 : ff;
 779 : ff;
 77A : ff;
 77B : ff;
 77C : ff;
 77D : ff;
 77E : ff;
 77F : ff;
 780 : ff;
 781 : ff;
 782 : ff;
 783 : ff;
 784 : ff;
 785 : ff;
 786 : ff;
 787 : ff;
 788 : ff;
 789 : ff;
 78A : ff;
 78B : ff;
 78C : ff;
 78D : ff;
 78E : ff;
 78F : ff;
 790 : ff;
 791 : ff;
 792 : ff;
 793 : ff;
 794 : ff;
 795 : ff;
 796 : ff;
 797 : ff;
 798 : ff;
 799 : ff;
 79A : ff;
 79B : ff;
 79C : ff;
 79D : ff;
 79E : ff;
 79F : ff;
 7A0 : ff;
 7A1 : ff;
 7A2 : ff;
 7A3 : ff;
 7A4 : ff;
 7A5 : ff;
 7A6 : ff;
 7A7 : ff;
 7A8 : ff;
 7A9 : ff;
 7AA : ff;
 7AB : ff;
 7AC : ff;
 7AD : ff;
 7AE : ff;
 7AF : ff;
 7B0 : ff;
 7B1 : ff;
 7B2 : ff;
 7B3 : ff;
 7B4 : ff;
 7B5 : ff;
 7B6 : ff;
 7B7 : ff;
 7B8 : ff;
 7B9 : ff;
 7BA : ff;
 7BB : ff;
 7BC : ff;
 7BD : ff;
 7BE : ff;
 7BF : ff;
 7C0 : ff;
 7C1 : ff;
 7C2 : ff;
 7C3 : ff;
 7C4 : ff;
 7C5 : ff;
 7C6 : ff;
 7C7 : ff;
 7C8 : ff;
 7C9 : ff;
 7CA : ff;
 7CB : ff;
 7CC : ff;
 7CD : ff;
 7CE : ff;
 7CF : ff;
 7D0 : ff;
 7D1 : ff;
 7D2 : ff;
 7D3 : ff;
 7D4 : ff;
 7D5 : ff;
 7D6 : ff;
 7D7 : ff;
 7D8 : ff;
 7D9 : ff;
 7DA : ff;
 7DB : ff;
 7DC : ff;
 7DD : ff;
 7DE : ff;
 7DF : ff;
 7E0 : ff;
 7E1 : ff;
 7E2 : ff;
 7E3 : ff;
 7E4 : ff;
 7E5 : ff;
 7E6 : ff;
 7E7 : ff;
 7E8 : ff;
 7E9 : ff;
 7EA : ff;
 7EB : ff;
 7EC : ff;
 7ED : ff;
 7EE : ff;
 7EF : ff;
 7F0 : ff;
 7F1 : ff;
 7F2 : ff;
 7F3 : ff;
 7F4 : ff;
 7F5 : ff;
 7F6 : ff;
 7F7 : ff;
 7F8 : ff;
 7F9 : ff;
 7FA : ff;
 7FB : ff;
 7FC : ff;
 7FD : ff;
 7FE : ff;
 7FF : ff;
 800 : ff;
 801 : ff;
 802 : ff;
 803 : ff;
 804 : ff;
 805 : ff;
 806 : ff;
 807 : ff;
 808 : ff;
 809 : ff;
 80A : ff;
 80B : ff;
 80C : ff;
 80D : ff;
 80E : ff;
 80F : ff;
 810 : ff;
 811 : ff;
 812 : ff;
 813 : ff;
 814 : ff;
 815 : ff;
 816 : ff;
 817 : ff;
 818 : ff;
 819 : ff;
 81A : ff;
 81B : ff;
 81C : ff;
 81D : ff;
 81E : ff;
 81F : ff;
 820 : ff;
 821 : ff;
 822 : ff;
 823 : ff;
 824 : ff;
 825 : ff;
 826 : ff;
 827 : ff;
 828 : ff;
 829 : ff;
 82A : ff;
 82B : ff;
 82C : ff;
 82D : ff;
 82E : ff;
 82F : ff;
 830 : ff;
 831 : ff;
 832 : ff;
 833 : ff;
 834 : ff;
 835 : ff;
 836 : ff;
 837 : ff;
 838 : ff;
 839 : ff;
 83A : ff;
 83B : ff;
 83C : ff;
 83D : ff;
 83E : ff;
 83F : ff;
 840 : ff;
 841 : ff;
 842 : ff;
 843 : ff;
 844 : ff;
 845 : ff;
 846 : ff;
 847 : ff;
 848 : ff;
 849 : ff;
 84A : ff;
 84B : ff;
 84C : ff;
 84D : ff;
 84E : ff;
 84F : ff;
 850 : ff;
 851 : ff;
 852 : ff;
 853 : ff;
 854 : ff;
 855 : ff;
 856 : ff;
 857 : ff;
 858 : ff;
 859 : ff;
 85A : ff;
 85B : ff;
 85C : ff;
 85D : ff;
 85E : ff;
 85F : ff;
 860 : ff;
 861 : ff;
 862 : ff;
 863 : ff;
 864 : ff;
 865 : ff;
 866 : ff;
 867 : ff;
 868 : ff;
 869 : ff;
 86A : ff;
 86B : ff;
 86C : ff;
 86D : ff;
 86E : ff;
 86F : ff;
 870 : ff;
 871 : ff;
 872 : ff;
 873 : ff;
 874 : ff;
 875 : ff;
 876 : ff;
 877 : ff;
 878 : ff;
 879 : ff;
 87A : ff;
 87B : ff;
 87C : ff;
 87D : ff;
 87E : ff;
 87F : ff;
 880 : ff;
 881 : ff;
 882 : ff;
 883 : ff;
 884 : ff;
 885 : ff;
 886 : ff;
 887 : ff;
 888 : ff;
 889 : ff;
 88A : ff;
 88B : ff;
 88C : ff;
 88D : ff;
 88E : ff;
 88F : ff;
 890 : ff;
 891 : ff;
 892 : ff;
 893 : ff;
 894 : ff;
 895 : ff;
 896 : ff;
 897 : ff;
 898 : ff;
 899 : ff;
 89A : ff;
 89B : ff;
 89C : ff;
 89D : ff;
 89E : ff;
 89F : ff;
 8A0 : ff;
 8A1 : ff;
 8A2 : ff;
 8A3 : ff;
 8A4 : ff;
 8A5 : ff;
 8A6 : ff;
 8A7 : ff;
 8A8 : ff;
 8A9 : ff;
 8AA : ff;
 8AB : ff;
 8AC : ff;
 8AD : ff;
 8AE : ff;
 8AF : ff;
 8B0 : ff;
 8B1 : ff;
 8B2 : ff;
 8B3 : ff;
 8B4 : ff;
 8B5 : ff;
 8B6 : ff;
 8B7 : ff;
 8B8 : ff;
 8B9 : ff;
 8BA : ff;
 8BB : ff;
 8BC : ff;
 8BD : ff;
 8BE : ff;
 8BF : ff;
 8C0 : ff;
 8C1 : ff;
 8C2 : ff;
 8C3 : ff;
 8C4 : ff;
 8C5 : ff;
 8C6 : ff;
 8C7 : ff;
 8C8 : ff;
 8C9 : ff;
 8CA : ff;
 8CB : ff;
 8CC : ff;
 8CD : ff;
 8CE : ff;
 8CF : ff;
 8D0 : ff;
 8D1 : ff;
 8D2 : ff;
 8D3 : ff;
 8D4 : ff;
 8D5 : ff;
 8D6 : ff;
 8D7 : ff;
 8D8 : ff;
 8D9 : ff;
 8DA : ff;
 8DB : ff;
 8DC : ff;
 8DD : ff;
 8DE : ff;
 8DF : ff;
 8E0 : ff;
 8E1 : ff;
 8E2 : ff;
 8E3 : ff;
 8E4 : ff;
 8E5 : ff;
 8E6 : ff;
 8E7 : ff;
 8E8 : ff;
 8E9 : ff;
 8EA : ff;
 8EB : ff;
 8EC : ff;
 8ED : ff;
 8EE : ff;
 8EF : ff;
 8F0 : ff;
 8F1 : ff;
 8F2 : ff;
 8F3 : ff;
 8F4 : ff;
 8F5 : ff;
 8F6 : ff;
 8F7 : ff;
 8F8 : ff;
 8F9 : ff;
 8FA : ff;
 8FB : ff;
 8FC : ff;
 8FD : ff;
 8FE : ff;
 8FF : ff;
 900 : ff;
 901 : ff;
 902 : ff;
 903 : ff;
 904 : ff;
 905 : ff;
 906 : ff;
 907 : ff;
 908 : ff;
 909 : ff;
 90A : ff;
 90B : ff;
 90C : ff;
 90D : ff;
 90E : ff;
 90F : ff;
 910 : ff;
 911 : ff;
 912 : ff;
 913 : ff;
 914 : ff;
 915 : ff;
 916 : ff;
 917 : ff;
 918 : ff;
 919 : ff;
 91A : ff;
 91B : ff;
 91C : ff;
 91D : ff;
 91E : ff;
 91F : ff;
 920 : ff;
 921 : ff;
 922 : ff;
 923 : ff;
 924 : ff;
 925 : ff;
 926 : ff;
 927 : ff;
 928 : ff;
 929 : ff;
 92A : ff;
 92B : ff;
 92C : ff;
 92D : ff;
 92E : ff;
 92F : ff;
 930 : ff;
 931 : ff;
 932 : ff;
 933 : ff;
 934 : ff;
 935 : ff;
 936 : ff;
 937 : ff;
 938 : ff;
 939 : ff;
 93A : ff;
 93B : ff;
 93C : ff;
 93D : ff;
 93E : ff;
 93F : ff;
 940 : ff;
 941 : ff;
 942 : ff;
 943 : ff;
 944 : ff;
 945 : ff;
 946 : ff;
 947 : ff;
 948 : ff;
 949 : ff;
 94A : ff;
 94B : ff;
 94C : ff;
 94D : ff;
 94E : ff;
 94F : ff;
 950 : ff;
 951 : ff;
 952 : ff;
 953 : ff;
 954 : ff;
 955 : ff;
 956 : ff;
 957 : ff;
 958 : ff;
 959 : ff;
 95A : ff;
 95B : ff;
 95C : ff;
 95D : ff;
 95E : ff;
 95F : ff;
 960 : ff;
 961 : ff;
 962 : ff;
 963 : ff;
 964 : ff;
 965 : ff;
 966 : ff;
 967 : ff;
 968 : ff;
 969 : ff;
 96A : ff;
 96B : ff;
 96C : ff;
 96D : ff;
 96E : ff;
 96F : ff;
 970 : ff;
 971 : ff;
 972 : ff;
 973 : ff;
 974 : ff;
 975 : ff;
 976 : ff;
 977 : ff;
 978 : ff;
 979 : ff;
 97A : ff;
 97B : ff;
 97C : ff;
 97D : ff;
 97E : ff;
 97F : ff;
 980 : ff;
 981 : ff;
 982 : ff;
 983 : ff;
 984 : ff;
 985 : ff;
 986 : ff;
 987 : ff;
 988 : ff;
 989 : ff;
 98A : ff;
 98B : ff;
 98C : ff;
 98D : ff;
 98E : ff;
 98F : ff;
 990 : ff;
 991 : ff;
 992 : ff;
 993 : ff;
 994 : ff;
 995 : ff;
 996 : ff;
 997 : ff;
 998 : ff;
 999 : ff;
 99A : ff;
 99B : ff;
 99C : ff;
 99D : ff;
 99E : ff;
 99F : ff;
 9A0 : ff;
 9A1 : ff;
 9A2 : ff;
 9A3 : ff;
 9A4 : ff;
 9A5 : ff;
 9A6 : ff;
 9A7 : ff;
 9A8 : ff;
 9A9 : ff;
 9AA : ff;
 9AB : ff;
 9AC : ff;
 9AD : ff;
 9AE : ff;
 9AF : ff;
 9B0 : ff;
 9B1 : ff;
 9B2 : ff;
 9B3 : ff;
 9B4 : ff;
 9B5 : ff;
 9B6 : ff;
 9B7 : ff;
 9B8 : ff;
 9B9 : ff;
 9BA : ff;
 9BB : ff;
 9BC : ff;
 9BD : ff;
 9BE : ff;
 9BF : ff;
 9C0 : ff;
 9C1 : ff;
 9C2 : ff;
 9C3 : ff;
 9C4 : ff;
 9C5 : ff;
 9C6 : ff;
 9C7 : ff;
 9C8 : ff;
 9C9 : ff;
 9CA : ff;
 9CB : ff;
 9CC : ff;
 9CD : ff;
 9CE : ff;
 9CF : ff;
 9D0 : ff;
 9D1 : ff;
 9D2 : ff;
 9D3 : ff;
 9D4 : ff;
 9D5 : ff;
 9D6 : ff;
 9D7 : ff;
 9D8 : ff;
 9D9 : ff;
 9DA : ff;
 9DB : ff;
 9DC : ff;
 9DD : ff;
 9DE : ff;
 9DF : ff;
 9E0 : ff;
 9E1 : ff;
 9E2 : ff;
 9E3 : ff;
 9E4 : ff;
 9E5 : ff;
 9E6 : ff;
 9E7 : ff;
 9E8 : ff;
 9E9 : ff;
 9EA : ff;
 9EB : ff;
 9EC : ff;
 9ED : ff;
 9EE : ff;
 9EF : ff;
 9F0 : ff;
 9F1 : ff;
 9F2 : ff;
 9F3 : ff;
 9F4 : ff;
 9F5 : ff;
 9F6 : ff;
 9F7 : ff;
 9F8 : ff;
 9F9 : ff;
 9FA : ff;
 9FB : ff;
 9FC : ff;
 9FD : ff;
 9FE : ff;
 9FF : ff;
 A00 : ff;
 A01 : ff;
 A02 : ff;
 A03 : ff;
 A04 : ff;
 A05 : ff;
 A06 : ff;
 A07 : ff;
 A08 : ff;
 A09 : ff;
 A0A : ff;
 A0B : ff;
 A0C : ff;
 A0D : ff;
 A0E : ff;
 A0F : ff;
 A10 : ff;
 A11 : ff;
 A12 : ff;
 A13 : ff;
 A14 : ff;
 A15 : ff;
 A16 : ff;
 A17 : ff;
 A18 : ff;
 A19 : ff;
 A1A : ff;
 A1B : ff;
 A1C : ff;
 A1D : ff;
 A1E : ff;
 A1F : ff;
 A20 : ff;
 A21 : ff;
 A22 : ff;
 A23 : ff;
 A24 : ff;
 A25 : ff;
 A26 : ff;
 A27 : ff;
 A28 : ff;
 A29 : ff;
 A2A : ff;
 A2B : ff;
 A2C : ff;
 A2D : ff;
 A2E : ff;
 A2F : ff;
 A30 : ff;
 A31 : ff;
 A32 : ff;
 A33 : ff;
 A34 : ff;
 A35 : ff;
 A36 : ff;
 A37 : ff;
 A38 : ff;
 A39 : ff;
 A3A : ff;
 A3B : ff;
 A3C : ff;
 A3D : ff;
 A3E : ff;
 A3F : ff;
 A40 : ff;
 A41 : ff;
 A42 : ff;
 A43 : ff;
 A44 : ff;
 A45 : ff;
 A46 : ff;
 A47 : ff;
 A48 : ff;
 A49 : ff;
 A4A : ff;
 A4B : ff;
 A4C : ff;
 A4D : ff;
 A4E : ff;
 A4F : ff;
 A50 : ff;
 A51 : ff;
 A52 : ff;
 A53 : ff;
 A54 : ff;
 A55 : ff;
 A56 : ff;
 A57 : ff;
 A58 : ff;
 A59 : ff;
 A5A : ff;
 A5B : ff;
 A5C : ff;
 A5D : ff;
 A5E : ff;
 A5F : ff;
 A60 : ff;
 A61 : ff;
 A62 : ff;
 A63 : ff;
 A64 : ff;
 A65 : ff;
 A66 : ff;
 A67 : ff;
 A68 : ff;
 A69 : ff;
 A6A : ff;
 A6B : ff;
 A6C : ff;
 A6D : ff;
 A6E : ff;
 A6F : ff;
 A70 : ff;
 A71 : ff;
 A72 : ff;
 A73 : ff;
 A74 : ff;
 A75 : ff;
 A76 : ff;
 A77 : ff;
 A78 : ff;
 A79 : ff;
 A7A : ff;
 A7B : ff;
 A7C : ff;
 A7D : ff;
 A7E : ff;
 A7F : ff;
 A80 : ff;
 A81 : ff;
 A82 : ff;
 A83 : ff;
 A84 : ff;
 A85 : ff;
 A86 : ff;
 A87 : ff;
 A88 : ff;
 A89 : ff;
 A8A : ff;
 A8B : ff;
 A8C : ff;
 A8D : ff;
 A8E : ff;
 A8F : ff;
 A90 : ff;
 A91 : ff;
 A92 : ff;
 A93 : ff;
 A94 : ff;
 A95 : ff;
 A96 : ff;
 A97 : ff;
 A98 : ff;
 A99 : ff;
 A9A : ff;
 A9B : ff;
 A9C : ff;
 A9D : ff;
 A9E : ff;
 A9F : ff;
 AA0 : ff;
 AA1 : ff;
 AA2 : ff;
 AA3 : ff;
 AA4 : ff;
 AA5 : ff;
 AA6 : ff;
 AA7 : ff;
 AA8 : ff;
 AA9 : ff;
 AAA : ff;
 AAB : ff;
 AAC : ff;
 AAD : ff;
 AAE : ff;
 AAF : ff;
 AB0 : ff;
 AB1 : ff;
 AB2 : ff;
 AB3 : ff;
 AB4 : ff;
 AB5 : ff;
 AB6 : ff;
 AB7 : ff;
 AB8 : ff;
 AB9 : ff;
 ABA : ff;
 ABB : ff;
 ABC : ff;
 ABD : ff;
 ABE : ff;
 ABF : ff;
 AC0 : ff;
 AC1 : ff;
 AC2 : ff;
 AC3 : ff;
 AC4 : ff;
 AC5 : ff;
 AC6 : ff;
 AC7 : ff;
 AC8 : ff;
 AC9 : ff;
 ACA : ff;
 ACB : ff;
 ACC : ff;
 ACD : ff;
 ACE : ff;
 ACF : ff;
 AD0 : ff;
 AD1 : ff;
 AD2 : ff;
 AD3 : ff;
 AD4 : ff;
 AD5 : ff;
 AD6 : ff;
 AD7 : ff;
 AD8 : ff;
 AD9 : ff;
 ADA : ff;
 ADB : ff;
 ADC : ff;
 ADD : ff;
 ADE : ff;
 ADF : ff;
 AE0 : ff;
 AE1 : ff;
 AE2 : ff;
 AE3 : ff;
 AE4 : ff;
 AE5 : ff;
 AE6 : ff;
 AE7 : ff;
 AE8 : ff;
 AE9 : ff;
 AEA : ff;
 AEB : ff;
 AEC : ff;
 AED : ff;
 AEE : ff;
 AEF : ff;
 AF0 : ff;
 AF1 : ff;
 AF2 : ff;
 AF3 : ff;
 AF4 : ff;
 AF5 : ff;
 AF6 : ff;
 AF7 : ff;
 AF8 : ff;
 AF9 : ff;
 AFA : ff;
 AFB : ff;
 AFC : ff;
 AFD : ff;
 AFE : ff;
 AFF : ff;
 B00 : ff;
 B01 : ff;
 B02 : ff;
 B03 : ff;
 B04 : ff;
 B05 : ff;
 B06 : ff;
 B07 : ff;
 B08 : ff;
 B09 : ff;
 B0A : ff;
 B0B : ff;
 B0C : ff;
 B0D : ff;
 B0E : ff;
 B0F : ff;
 B10 : ff;
 B11 : ff;
 B12 : ff;
 B13 : ff;
 B14 : ff;
 B15 : ff;
 B16 : ff;
 B17 : ff;
 B18 : ff;
 B19 : ff;
 B1A : ff;
 B1B : ff;
 B1C : ff;
 B1D : ff;
 B1E : ff;
 B1F : ff;
 B20 : ff;
 B21 : ff;
 B22 : ff;
 B23 : ff;
 B24 : ff;
 B25 : ff;
 B26 : ff;
 B27 : ff;
 B28 : ff;
 B29 : ff;
 B2A : ff;
 B2B : ff;
 B2C : ff;
 B2D : ff;
 B2E : ff;
 B2F : ff;
 B30 : ff;
 B31 : ff;
 B32 : ff;
 B33 : ff;
 B34 : ff;
 B35 : ff;
 B36 : ff;
 B37 : ff;
 B38 : ff;
 B39 : ff;
 B3A : ff;
 B3B : ff;
 B3C : ff;
 B3D : ff;
 B3E : ff;
 B3F : ff;
 B40 : ff;
 B41 : ff;
 B42 : ff;
 B43 : ff;
 B44 : ff;
 B45 : ff;
 B46 : ff;
 B47 : ff;
 B48 : ff;
 B49 : ff;
 B4A : ff;
 B4B : ff;
 B4C : ff;
 B4D : ff;
 B4E : ff;
 B4F : ff;
 B50 : ff;
 B51 : ff;
 B52 : ff;
 B53 : ff;
 B54 : ff;
 B55 : ff;
 B56 : ff;
 B57 : ff;
 B58 : ff;
 B59 : ff;
 B5A : ff;
 B5B : ff;
 B5C : ff;
 B5D : ff;
 B5E : ff;
 B5F : ff;
 B60 : ff;
 B61 : ff;
 B62 : ff;
 B63 : ff;
 B64 : ff;
 B65 : ff;
 B66 : ff;
 B67 : ff;
 B68 : ff;
 B69 : ff;
 B6A : ff;
 B6B : ff;
 B6C : ff;
 B6D : ff;
 B6E : ff;
 B6F : ff;
 B70 : ff;
 B71 : ff;
 B72 : ff;
 B73 : ff;
 B74 : ff;
 B75 : ff;
 B76 : ff;
 B77 : ff;
 B78 : ff;
 B79 : ff;
 B7A : ff;
 B7B : ff;
 B7C : ff;
 B7D : ff;
 B7E : ff;
 B7F : ff;
 B80 : ff;
 B81 : ff;
 B82 : ff;
 B83 : ff;
 B84 : ff;
 B85 : ff;
 B86 : ff;
 B87 : ff;
 B88 : ff;
 B89 : ff;
 B8A : ff;
 B8B : ff;
 B8C : ff;
 B8D : ff;
 B8E : ff;
 B8F : ff;
 B90 : ff;
 B91 : ff;
 B92 : ff;
 B93 : ff;
 B94 : ff;
 B95 : ff;
 B96 : ff;
 B97 : ff;
 B98 : ff;
 B99 : ff;
 B9A : ff;
 B9B : ff;
 B9C : ff;
 B9D : ff;
 B9E : ff;
 B9F : ff;
 BA0 : ff;
 BA1 : ff;
 BA2 : ff;
 BA3 : ff;
 BA4 : ff;
 BA5 : ff;
 BA6 : ff;
 BA7 : ff;
 BA8 : ff;
 BA9 : ff;
 BAA : ff;
 BAB : ff;
 BAC : ff;
 BAD : ff;
 BAE : ff;
 BAF : ff;
 BB0 : ff;
 BB1 : ff;
 BB2 : ff;
 BB3 : ff;
 BB4 : ff;
 BB5 : ff;
 BB6 : ff;
 BB7 : ff;
 BB8 : ff;
 BB9 : ff;
 BBA : ff;
 BBB : ff;
 BBC : ff;
 BBD : ff;
 BBE : ff;
 BBF : ff;
 BC0 : ff;
 BC1 : ff;
 BC2 : ff;
 BC3 : ff;
 BC4 : ff;
 BC5 : ff;
 BC6 : ff;
 BC7 : ff;
 BC8 : ff;
 BC9 : ff;
 BCA : ff;
 BCB : ff;
 BCC : ff;
 BCD : ff;
 BCE : ff;
 BCF : ff;
 BD0 : ff;
 BD1 : ff;
 BD2 : ff;
 BD3 : ff;
 BD4 : ff;
 BD5 : ff;
 BD6 : ff;
 BD7 : ff;
 BD8 : ff;
 BD9 : ff;
 BDA : ff;
 BDB : ff;
 BDC : ff;
 BDD : ff;
 BDE : ff;
 BDF : ff;
 BE0 : ff;
 BE1 : ff;
 BE2 : ff;
 BE3 : ff;
 BE4 : ff;
 BE5 : ff;
 BE6 : ff;
 BE7 : ff;
 BE8 : ff;
 BE9 : ff;
 BEA : ff;
 BEB : ff;
 BEC : ff;
 BED : ff;
 BEE : ff;
 BEF : ff;
 BF0 : ff;
 BF1 : ff;
 BF2 : ff;
 BF3 : ff;
 BF4 : ff;
 BF5 : ff;
 BF6 : ff;
 BF7 : ff;
 BF8 : ff;
 BF9 : ff;
 BFA : ff;
 BFB : ff;
 BFC : ff;
 BFD : ff;
 BFE : ff;
 BFF : ff;
 C00 : ff;
 C01 : ff;
 C02 : ff;
 C03 : ff;
 C04 : ff;
 C05 : ff;
 C06 : ff;
 C07 : ff;
 C08 : ff;
 C09 : ff;
 C0A : ff;
 C0B : ff;
 C0C : ff;
 C0D : ff;
 C0E : ff;
 C0F : ff;
 C10 : ff;
 C11 : ff;
 C12 : ff;
 C13 : ff;
 C14 : ff;
 C15 : ff;
 C16 : ff;
 C17 : ff;
 C18 : ff;
 C19 : ff;
 C1A : ff;
 C1B : ff;
 C1C : ff;
 C1D : ff;
 C1E : ff;
 C1F : ff;
 C20 : ff;
 C21 : ff;
 C22 : ff;
 C23 : ff;
 C24 : ff;
 C25 : ff;
 C26 : ff;
 C27 : ff;
 C28 : ff;
 C29 : ff;
 C2A : ff;
 C2B : ff;
 C2C : ff;
 C2D : ff;
 C2E : ff;
 C2F : ff;
 C30 : ff;
 C31 : ff;
 C32 : ff;
 C33 : ff;
 C34 : ff;
 C35 : ff;
 C36 : ff;
 C37 : ff;
 C38 : ff;
 C39 : ff;
 C3A : ff;
 C3B : ff;
 C3C : ff;
 C3D : ff;
 C3E : ff;
 C3F : ff;
 C40 : ff;
 C41 : ff;
 C42 : ff;
 C43 : ff;
 C44 : ff;
 C45 : ff;
 C46 : ff;
 C47 : ff;
 C48 : ff;
 C49 : ff;
 C4A : ff;
 C4B : ff;
 C4C : ff;
 C4D : ff;
 C4E : ff;
 C4F : ff;
 C50 : ff;
 C51 : ff;
 C52 : ff;
 C53 : ff;
 C54 : ff;
 C55 : ff;
 C56 : ff;
 C57 : ff;
 C58 : ff;
 C59 : ff;
 C5A : ff;
 C5B : ff;
 C5C : ff;
 C5D : ff;
 C5E : ff;
 C5F : ff;
 C60 : ff;
 C61 : ff;
 C62 : ff;
 C63 : ff;
 C64 : ff;
 C65 : ff;
 C66 : ff;
 C67 : ff;
 C68 : ff;
 C69 : ff;
 C6A : ff;
 C6B : ff;
 C6C : ff;
 C6D : ff;
 C6E : ff;
 C6F : ff;
 C70 : ff;
 C71 : ff;
 C72 : ff;
 C73 : ff;
 C74 : ff;
 C75 : ff;
 C76 : ff;
 C77 : ff;
 C78 : ff;
 C79 : ff;
 C7A : ff;
 C7B : ff;
 C7C : ff;
 C7D : ff;
 C7E : ff;
 C7F : ff;
 C80 : ff;
 C81 : ff;
 C82 : ff;
 C83 : ff;
 C84 : ff;
 C85 : ff;
 C86 : ff;
 C87 : ff;
 C88 : ff;
 C89 : ff;
 C8A : ff;
 C8B : ff;
 C8C : ff;
 C8D : ff;
 C8E : ff;
 C8F : ff;
 C90 : ff;
 C91 : ff;
 C92 : ff;
 C93 : ff;
 C94 : ff;
 C95 : ff;
 C96 : ff;
 C97 : ff;
 C98 : ff;
 C99 : ff;
 C9A : ff;
 C9B : ff;
 C9C : ff;
 C9D : ff;
 C9E : ff;
 C9F : ff;
 CA0 : ff;
 CA1 : ff;
 CA2 : ff;
 CA3 : ff;
 CA4 : ff;
 CA5 : ff;
 CA6 : ff;
 CA7 : ff;
 CA8 : ff;
 CA9 : ff;
 CAA : ff;
 CAB : ff;
 CAC : ff;
 CAD : ff;
 CAE : ff;
 CAF : ff;
 CB0 : ff;
 CB1 : ff;
 CB2 : ff;
 CB3 : ff;
 CB4 : ff;
 CB5 : ff;
 CB6 : ff;
 CB7 : ff;
 CB8 : ff;
 CB9 : ff;
 CBA : ff;
 CBB : ff;
 CBC : ff;
 CBD : ff;
 CBE : ff;
 CBF : ff;
 CC0 : ff;
 CC1 : ff;
 CC2 : ff;
 CC3 : ff;
 CC4 : ff;
 CC5 : ff;
 CC6 : ff;
 CC7 : ff;
 CC8 : ff;
 CC9 : ff;
 CCA : ff;
 CCB : ff;
 CCC : ff;
 CCD : ff;
 CCE : ff;
 CCF : ff;
 CD0 : ff;
 CD1 : ff;
 CD2 : ff;
 CD3 : ff;
 CD4 : ff;
 CD5 : ff;
 CD6 : ff;
 CD7 : ff;
 CD8 : ff;
 CD9 : ff;
 CDA : ff;
 CDB : ff;
 CDC : ff;
 CDD : ff;
 CDE : ff;
 CDF : ff;
 CE0 : ff;
 CE1 : ff;
 CE2 : ff;
 CE3 : ff;
 CE4 : ff;
 CE5 : ff;
 CE6 : ff;
 CE7 : ff;
 CE8 : ff;
 CE9 : ff;
 CEA : ff;
 CEB : ff;
 CEC : ff;
 CED : ff;
 CEE : ff;
 CEF : ff;
 CF0 : ff;
 CF1 : ff;
 CF2 : ff;
 CF3 : ff;
 CF4 : ff;
 CF5 : ff;
 CF6 : ff;
 CF7 : ff;
 CF8 : ff;
 CF9 : ff;
 CFA : ff;
 CFB : ff;
 CFC : ff;
 CFD : ff;
 CFE : ff;
 CFF : ff;
 D00 : ff;
 D01 : ff;
 D02 : ff;
 D03 : ff;
 D04 : ff;
 D05 : ff;
 D06 : ff;
 D07 : ff;
 D08 : ff;
 D09 : ff;
 D0A : ff;
 D0B : ff;
 D0C : ff;
 D0D : ff;
 D0E : ff;
 D0F : ff;
 D10 : ff;
 D11 : ff;
 D12 : ff;
 D13 : ff;
 D14 : ff;
 D15 : ff;
 D16 : ff;
 D17 : ff;
 D18 : ff;
 D19 : ff;
 D1A : ff;
 D1B : ff;
 D1C : ff;
 D1D : ff;
 D1E : ff;
 D1F : ff;
 D20 : ff;
 D21 : ff;
 D22 : ff;
 D23 : ff;
 D24 : ff;
 D25 : ff;
 D26 : ff;
 D27 : ff;
 D28 : ff;
 D29 : ff;
 D2A : ff;
 D2B : ff;
 D2C : ff;
 D2D : ff;
 D2E : ff;
 D2F : ff;
 D30 : ff;
 D31 : ff;
 D32 : ff;
 D33 : ff;
 D34 : ff;
 D35 : ff;
 D36 : ff;
 D37 : ff;
 D38 : ff;
 D39 : ff;
 D3A : ff;
 D3B : ff;
 D3C : ff;
 D3D : ff;
 D3E : ff;
 D3F : ff;
 D40 : ff;
 D41 : ff;
 D42 : ff;
 D43 : ff;
 D44 : ff;
 D45 : ff;
 D46 : ff;
 D47 : ff;
 D48 : ff;
 D49 : ff;
 D4A : ff;
 D4B : ff;
 D4C : ff;
 D4D : ff;
 D4E : ff;
 D4F : ff;
 D50 : ff;
 D51 : ff;
 D52 : ff;
 D53 : ff;
 D54 : ff;
 D55 : ff;
 D56 : ff;
 D57 : ff;
 D58 : ff;
 D59 : ff;
 D5A : ff;
 D5B : ff;
 D5C : ff;
 D5D : ff;
 D5E : ff;
 D5F : ff;
 D60 : ff;
 D61 : ff;
 D62 : ff;
 D63 : ff;
 D64 : ff;
 D65 : ff;
 D66 : ff;
 D67 : ff;
 D68 : ff;
 D69 : ff;
 D6A : ff;
 D6B : ff;
 D6C : ff;
 D6D : ff;
 D6E : ff;
 D6F : ff;
 D70 : ff;
 D71 : ff;
 D72 : ff;
 D73 : ff;
 D74 : ff;
 D75 : ff;
 D76 : ff;
 D77 : ff;
 D78 : ff;
 D79 : ff;
 D7A : ff;
 D7B : ff;
 D7C : ff;
 D7D : ff;
 D7E : ff;
 D7F : ff;
 D80 : ff;
 D81 : ff;
 D82 : ff;
 D83 : ff;
 D84 : ff;
 D85 : ff;
 D86 : ff;
 D87 : ff;
 D88 : ff;
 D89 : ff;
 D8A : ff;
 D8B : ff;
 D8C : ff;
 D8D : ff;
 D8E : ff;
 D8F : ff;
 D90 : ff;
 D91 : ff;
 D92 : ff;
 D93 : ff;
 D94 : ff;
 D95 : ff;
 D96 : ff;
 D97 : ff;
 D98 : ff;
 D99 : ff;
 D9A : ff;
 D9B : ff;
 D9C : ff;
 D9D : ff;
 D9E : ff;
 D9F : ff;
 DA0 : ff;
 DA1 : ff;
 DA2 : ff;
 DA3 : ff;
 DA4 : ff;
 DA5 : ff;
 DA6 : ff;
 DA7 : ff;
 DA8 : ff;
 DA9 : ff;
 DAA : ff;
 DAB : ff;
 DAC : ff;
 DAD : ff;
 DAE : ff;
 DAF : ff;
 DB0 : ff;
 DB1 : ff;
 DB2 : ff;
 DB3 : ff;
 DB4 : ff;
 DB5 : ff;
 DB6 : ff;
 DB7 : ff;
 DB8 : ff;
 DB9 : ff;
 DBA : ff;
 DBB : ff;
 DBC : ff;
 DBD : ff;
 DBE : ff;
 DBF : ff;
 DC0 : ff;
 DC1 : ff;
 DC2 : ff;
 DC3 : ff;
 DC4 : ff;
 DC5 : ff;
 DC6 : ff;
 DC7 : ff;
 DC8 : ff;
 DC9 : ff;
 DCA : ff;
 DCB : ff;
 DCC : ff;
 DCD : ff;
 DCE : ff;
 DCF : ff;
 DD0 : ff;
 DD1 : ff;
 DD2 : ff;
 DD3 : ff;
 DD4 : ff;
 DD5 : ff;
 DD6 : ff;
 DD7 : ff;
 DD8 : ff;
 DD9 : ff;
 DDA : ff;
 DDB : ff;
 DDC : ff;
 DDD : ff;
 DDE : ff;
 DDF : ff;
 DE0 : ff;
 DE1 : ff;
 DE2 : ff;
 DE3 : ff;
 DE4 : ff;
 DE5 : ff;
 DE6 : ff;
 DE7 : ff;
 DE8 : ff;
 DE9 : ff;
 DEA : ff;
 DEB : ff;
 DEC : ff;
 DED : ff;
 DEE : ff;
 DEF : ff;
 DF0 : ff;
 DF1 : ff;
 DF2 : ff;
 DF3 : ff;
 DF4 : ff;
 DF5 : ff;
 DF6 : ff;
 DF7 : ff;
 DF8 : ff;
 DF9 : ff;
 DFA : ff;
 DFB : ff;
 DFC : ff;
 DFD : ff;
 DFE : ff;
 DFF : ff;
 E00 : ff;
 E01 : ff;
 E02 : ff;
 E03 : ff;
 E04 : ff;
 E05 : ff;
 E06 : ff;
 E07 : ff;
 E08 : ff;
 E09 : ff;
 E0A : ff;
 E0B : ff;
 E0C : ff;
 E0D : ff;
 E0E : ff;
 E0F : ff;
 E10 : ff;
 E11 : ff;
 E12 : ff;
 E13 : ff;
 E14 : ff;
 E15 : ff;
 E16 : ff;
 E17 : ff;
 E18 : ff;
 E19 : ff;
 E1A : ff;
 E1B : ff;
 E1C : ff;
 E1D : ff;
 E1E : ff;
 E1F : ff;
 E20 : ff;
 E21 : ff;
 E22 : ff;
 E23 : ff;
 E24 : ff;
 E25 : ff;
 E26 : ff;
 E27 : ff;
 E28 : ff;
 E29 : ff;
 E2A : ff;
 E2B : ff;
 E2C : ff;
 E2D : ff;
 E2E : ff;
 E2F : ff;
 E30 : ff;
 E31 : ff;
 E32 : ff;
 E33 : ff;
 E34 : ff;
 E35 : ff;
 E36 : ff;
 E37 : ff;
 E38 : ff;
 E39 : ff;
 E3A : ff;
 E3B : ff;
 E3C : ff;
 E3D : ff;
 E3E : ff;
 E3F : ff;
 E40 : ff;
 E41 : ff;
 E42 : ff;
 E43 : ff;
 E44 : ff;
 E45 : ff;
 E46 : ff;
 E47 : ff;
 E48 : ff;
 E49 : ff;
 E4A : ff;
 E4B : ff;
 E4C : ff;
 E4D : ff;
 E4E : ff;
 E4F : ff;
 E50 : ff;
 E51 : ff;
 E52 : ff;
 E53 : ff;
 E54 : ff;
 E55 : ff;
 E56 : ff;
 E57 : ff;
 E58 : ff;
 E59 : ff;
 E5A : ff;
 E5B : ff;
 E5C : ff;
 E5D : ff;
 E5E : ff;
 E5F : ff;
 E60 : ff;
 E61 : ff;
 E62 : ff;
 E63 : ff;
 E64 : ff;
 E65 : ff;
 E66 : ff;
 E67 : ff;
 E68 : ff;
 E69 : ff;
 E6A : ff;
 E6B : ff;
 E6C : ff;
 E6D : ff;
 E6E : ff;
 E6F : ff;
 E70 : ff;
 E71 : ff;
 E72 : ff;
 E73 : ff;
 E74 : ff;
 E75 : ff;
 E76 : ff;
 E77 : ff;
 E78 : ff;
 E79 : ff;
 E7A : ff;
 E7B : ff;
 E7C : ff;
 E7D : ff;
 E7E : ff;
 E7F : ff;
 E80 : ff;
 E81 : ff;
 E82 : ff;
 E83 : ff;
 E84 : ff;
 E85 : ff;
 E86 : ff;
 E87 : ff;
 E88 : ff;
 E89 : ff;
 E8A : ff;
 E8B : ff;
 E8C : ff;
 E8D : ff;
 E8E : ff;
 E8F : ff;
 E90 : ff;
 E91 : ff;
 E92 : ff;
 E93 : ff;
 E94 : ff;
 E95 : ff;
 E96 : ff;
 E97 : ff;
 E98 : ff;
 E99 : ff;
 E9A : ff;
 E9B : ff;
 E9C : ff;
 E9D : ff;
 E9E : ff;
 E9F : ff;
 EA0 : ff;
 EA1 : ff;
 EA2 : ff;
 EA3 : ff;
 EA4 : ff;
 EA5 : ff;
 EA6 : ff;
 EA7 : ff;
 EA8 : ff;
 EA9 : ff;
 EAA : ff;
 EAB : ff;
 EAC : ff;
 EAD : ff;
 EAE : ff;
 EAF : ff;
 EB0 : ff;
 EB1 : ff;
 EB2 : ff;
 EB3 : ff;
 EB4 : ff;
 EB5 : ff;
 EB6 : ff;
 EB7 : ff;
 EB8 : ff;
 EB9 : ff;
 EBA : ff;
 EBB : ff;
 EBC : ff;
 EBD : ff;
 EBE : ff;
 EBF : ff;
 EC0 : ff;
 EC1 : ff;
 EC2 : ff;
 EC3 : ff;
 EC4 : ff;
 EC5 : ff;
 EC6 : ff;
 EC7 : ff;
 EC8 : ff;
 EC9 : ff;
 ECA : ff;
 ECB : ff;
 ECC : ff;
 ECD : ff;
 ECE : ff;
 ECF : ff;
 ED0 : ff;
 ED1 : ff;
 ED2 : ff;
 ED3 : ff;
 ED4 : ff;
 ED5 : ff;
 ED6 : ff;
 ED7 : ff;
 ED8 : ff;
 ED9 : ff;
 EDA : ff;
 EDB : ff;
 EDC : ff;
 EDD : ff;
 EDE : ff;
 EDF : ff;
 EE0 : ff;
 EE1 : ff;
 EE2 : ff;
 EE3 : ff;
 EE4 : ff;
 EE5 : ff;
 EE6 : ff;
 EE7 : ff;
 EE8 : ff;
 EE9 : ff;
 EEA : ff;
 EEB : ff;
 EEC : ff;
 EED : ff;
 EEE : ff;
 EEF : ff;
 EF0 : ff;
 EF1 : ff;
 EF2 : ff;
 EF3 : ff;
 EF4 : ff;
 EF5 : ff;
 EF6 : ff;
 EF7 : ff;
 EF8 : ff;
 EF9 : ff;
 EFA : ff;
 EFB : ff;
 EFC : ff;
 EFD : ff;
 EFE : ff;
 EFF : ff;
 F00 : ff;
 F01 : ff;
 F02 : ff;
 F03 : ff;
 F04 : ff;
 F05 : ff;
 F06 : ff;
 F07 : ff;
 F08 : ff;
 F09 : ff;
 F0A : ff;
 F0B : ff;
 F0C : ff;
 F0D : ff;
 F0E : ff;
 F0F : ff;
 F10 : ff;
 F11 : ff;
 F12 : ff;
 F13 : ff;
 F14 : ff;
 F15 : ff;
 F16 : ff;
 F17 : ff;
 F18 : ff;
 F19 : ff;
 F1A : ff;
 F1B : ff;
 F1C : ff;
 F1D : ff;
 F1E : ff;
 F1F : ff;
 F20 : ff;
 F21 : ff;
 F22 : ff;
 F23 : ff;
 F24 : ff;
 F25 : ff;
 F26 : ff;
 F27 : ff;
 F28 : ff;
 F29 : ff;
 F2A : ff;
 F2B : ff;
 F2C : ff;
 F2D : ff;
 F2E : ff;
 F2F : ff;
 F30 : ff;
 F31 : ff;
 F32 : ff;
 F33 : ff;
 F34 : ff;
 F35 : ff;
 F36 : ff;
 F37 : ff;
 F38 : ff;
 F39 : ff;
 F3A : ff;
 F3B : ff;
 F3C : ff;
 F3D : ff;
 F3E : ff;
 F3F : ff;
 F40 : ff;
 F41 : ff;
 F42 : ff;
 F43 : ff;
 F44 : ff;
 F45 : ff;
 F46 : ff;
 F47 : ff;
 F48 : ff;
 F49 : ff;
 F4A : ff;
 F4B : ff;
 F4C : ff;
 F4D : ff;
 F4E : ff;
 F4F : ff;
 F50 : ff;
 F51 : ff;
 F52 : ff;
 F53 : ff;
 F54 : ff;
 F55 : ff;
 F56 : ff;
 F57 : ff;
 F58 : ff;
 F59 : ff;
 F5A : ff;
 F5B : ff;
 F5C : ff;
 F5D : ff;
 F5E : ff;
 F5F : ff;
 F60 : ff;
 F61 : ff;
 F62 : ff;
 F63 : ff;
 F64 : ff;
 F65 : ff;
 F66 : ff;
 F67 : ff;
 F68 : ff;
 F69 : ff;
 F6A : ff;
 F6B : ff;
 F6C : ff;
 F6D : ff;
 F6E : ff;
 F6F : ff;
 F70 : ff;
 F71 : ff;
 F72 : ff;
 F73 : ff;
 F74 : ff;
 F75 : ff;
 F76 : ff;
 F77 : ff;
 F78 : ff;
 F79 : ff;
 F7A : ff;
 F7B : ff;
 F7C : ff;
 F7D : ff;
 F7E : ff;
 F7F : ff;
 F80 : ff;
 F81 : ff;
 F82 : ff;
 F83 : ff;
 F84 : ff;
 F85 : ff;
 F86 : ff;
 F87 : ff;
 F88 : ff;
 F89 : ff;
 F8A : ff;
 F8B : ff;
 F8C : ff;
 F8D : ff;
 F8E : ff;
 F8F : ff;
 F90 : ff;
 F91 : ff;
 F92 : ff;
 F93 : ff;
 F94 : ff;
 F95 : ff;
 F96 : ff;
 F97 : ff;
 F98 : ff;
 F99 : ff;
 F9A : ff;
 F9B : ff;
 F9C : ff;
 F9D : ff;
 F9E : ff;
 F9F : ff;
 FA0 : ff;
 FA1 : ff;
 FA2 : ff;
 FA3 : ff;
 FA4 : ff;
 FA5 : ff;
 FA6 : ff;
 FA7 : ff;
 FA8 : ff;
 FA9 : ff;
 FAA : ff;
 FAB : ff;
 FAC : ff;
 FAD : ff;
 FAE : ff;
 FAF : ff;
 FB0 : ff;
 FB1 : ff;
 FB2 : ff;
 FB3 : ff;
 FB4 : ff;
 FB5 : ff;
 FB6 : ff;
 FB7 : ff;
 FB8 : ff;
 FB9 : ff;
 FBA : ff;
 FBB : ff;
 FBC : ff;
 FBD : ff;
 FBE : ff;
 FBF : ff;
 FC0 : ff;
 FC1 : ff;
 FC2 : ff;
 FC3 : ff;
 FC4 : ff;
 FC5 : ff;
 FC6 : ff;
 FC7 : ff;
 FC8 : ff;
 FC9 : ff;
 FCA : ff;
 FCB : ff;
 FCC : ff;
 FCD : ff;
 FCE : ff;
 FCF : ff;
 FD0 : ff;
 FD1 : ff;
 FD2 : ff;
 FD3 : ff;
 FD4 : ff;
 FD5 : ff;
 FD6 : ff;
 FD7 : ff;
 FD8 : ff;
 FD9 : ff;
 FDA : ff;
 FDB : ff;
 FDC : ff;
 FDD : ff;
 FDE : ff;
 FDF : ff;
 FE0 : ff;
 FE1 : ff;
 FE2 : ff;
 FE3 : ff;
 FE4 : ff;
 FE5 : ff;
 FE6 : ff;
 FE7 : ff;
 FE8 : ff;
 FE9 : ff;
 FEA : ff;
 FEB : ff;
 FEC : ff;
 FED : ff;
 FEE : ff;
 FEF : ff;
 FF0 : ff;
 FF1 : ff;
 FF2 : ff;
 FF3 : ff;
 FF4 : ff;
 FF5 : ff;
 FF6 : ff;
 FF7 : ff;
 FF8 : ff;
 FF9 : ff;
 FFA : ff;
 FFB : ff;
 FFC : ff;
 FFD : ff;
 FFE : ff;
 FFF : ff;
1000 : ff;
1001 : ff;
1002 : ff;
1003 : ff;
1004 : ff;
1005 : ff;
1006 : ff;
1007 : ff;
1008 : ff;
1009 : ff;
100A : ff;
100B : ff;
100C : ff;
100D : ff;
100E : ff;
100F : ff;
1010 : ff;
1011 : ff;
1012 : ff;
1013 : ff;
1014 : ff;
1015 : ff;
1016 : ff;
1017 : ff;
1018 : ff;
1019 : ff;
101A : ff;
101B : ff;
101C : ff;
101D : ff;
101E : ff;
101F : ff;
1020 : ff;
1021 : ff;
1022 : ff;
1023 : ff;
1024 : ff;
1025 : ff;
1026 : ff;
1027 : ff;
1028 : ff;
1029 : ff;
102A : ff;
102B : ff;
102C : ff;
102D : ff;
102E : ff;
102F : ff;
1030 : ff;
1031 : ff;
1032 : ff;
1033 : ff;
1034 : ff;
1035 : ff;
1036 : ff;
1037 : ff;
1038 : ff;
1039 : ff;
103A : ff;
103B : ff;
103C : ff;
103D : ff;
103E : ff;
103F : ff;
1040 : ff;
1041 : ff;
1042 : ff;
1043 : ff;
1044 : ff;
1045 : ff;
1046 : ff;
1047 : ff;
1048 : ff;
1049 : ff;
104A : ff;
104B : ff;
104C : ff;
104D : ff;
104E : ff;
104F : ff;
1050 : ff;
1051 : ff;
1052 : ff;
1053 : ff;
1054 : ff;
1055 : ff;
1056 : ff;
1057 : ff;
1058 : ff;
1059 : ff;
105A : ff;
105B : ff;
105C : ff;
105D : ff;
105E : ff;
105F : ff;
1060 : ff;
1061 : ff;
1062 : ff;
1063 : ff;
1064 : ff;
1065 : ff;
1066 : ff;
1067 : ff;
1068 : ff;
1069 : ff;
106A : ff;
106B : ff;
106C : ff;
106D : ff;
106E : ff;
106F : ff;
1070 : ff;
1071 : ff;
1072 : ff;
1073 : ff;
1074 : ff;
1075 : ff;
1076 : ff;
1077 : ff;
1078 : ff;
1079 : ff;
107A : ff;
107B : ff;
107C : ff;
107D : ff;
107E : ff;
107F : ff;
1080 : ff;
1081 : ff;
1082 : ff;
1083 : ff;
1084 : ff;
1085 : ff;
1086 : ff;
1087 : ff;
1088 : ff;
1089 : ff;
108A : ff;
108B : ff;
108C : ff;
108D : ff;
108E : ff;
108F : ff;
1090 : ff;
1091 : ff;
1092 : ff;
1093 : ff;
1094 : ff;
1095 : ff;
1096 : ff;
1097 : ff;
1098 : ff;
1099 : ff;
109A : ff;
109B : ff;
109C : ff;
109D : ff;
109E : ff;
109F : ff;
10A0 : ff;
10A1 : ff;
10A2 : ff;
10A3 : ff;
10A4 : ff;
10A5 : ff;
10A6 : ff;
10A7 : ff;
10A8 : ff;
10A9 : ff;
10AA : ff;
10AB : ff;
10AC : ff;
10AD : ff;
10AE : ff;
10AF : ff;
10B0 : ff;
10B1 : ff;
10B2 : ff;
10B3 : ff;
10B4 : ff;
10B5 : ff;
10B6 : ff;
10B7 : ff;
10B8 : ff;
10B9 : ff;
10BA : ff;
10BB : ff;
10BC : ff;
10BD : ff;
10BE : ff;
10BF : ff;
10C0 : ff;
10C1 : ff;
10C2 : ff;
10C3 : ff;
10C4 : ff;
10C5 : ff;
10C6 : ff;
10C7 : ff;
10C8 : ff;
10C9 : ff;
10CA : ff;
10CB : ff;
10CC : ff;
10CD : ff;
10CE : ff;
10CF : ff;
10D0 : ff;
10D1 : ff;
10D2 : ff;
10D3 : ff;
10D4 : ff;
10D5 : ff;
10D6 : ff;
10D7 : ff;
10D8 : ff;
10D9 : ff;
10DA : ff;
10DB : ff;
10DC : ff;
10DD : ff;
10DE : ff;
10DF : ff;
10E0 : ff;
10E1 : ff;
10E2 : ff;
10E3 : ff;
10E4 : ff;
10E5 : ff;
10E6 : ff;
10E7 : ff;
10E8 : ff;
10E9 : ff;
10EA : ff;
10EB : ff;
10EC : ff;
10ED : ff;
10EE : ff;
10EF : ff;
10F0 : ff;
10F1 : ff;
10F2 : ff;
10F3 : ff;
10F4 : ff;
10F5 : ff;
10F6 : ff;
10F7 : ff;
10F8 : ff;
10F9 : ff;
10FA : ff;
10FB : ff;
10FC : ff;
10FD : ff;
10FE : ff;
10FF : ff;
1100 : ff;
1101 : ff;
1102 : ff;
1103 : ff;
1104 : ff;
1105 : ff;
1106 : ff;
1107 : ff;
1108 : ff;
1109 : ff;
110A : ff;
110B : ff;
110C : ff;
110D : ff;
110E : ff;
110F : ff;
1110 : ff;
1111 : ff;
1112 : ff;
1113 : ff;
1114 : ff;
1115 : ff;
1116 : ff;
1117 : ff;
1118 : ff;
1119 : ff;
111A : ff;
111B : ff;
111C : ff;
111D : ff;
111E : ff;
111F : ff;
1120 : ff;
1121 : ff;
1122 : ff;
1123 : ff;
1124 : ff;
1125 : ff;
1126 : ff;
1127 : ff;
1128 : ff;
1129 : ff;
112A : ff;
112B : ff;
112C : ff;
112D : ff;
112E : ff;
112F : ff;
1130 : ff;
1131 : ff;
1132 : ff;
1133 : ff;
1134 : ff;
1135 : ff;
1136 : ff;
1137 : ff;
1138 : ff;
1139 : ff;
113A : ff;
113B : ff;
113C : ff;
113D : ff;
113E : ff;
113F : ff;
1140 : ff;
1141 : ff;
1142 : ff;
1143 : ff;
1144 : ff;
1145 : ff;
1146 : ff;
1147 : ff;
1148 : ff;
1149 : ff;
114A : ff;
114B : ff;
114C : ff;
114D : ff;
114E : ff;
114F : ff;
1150 : ff;
1151 : ff;
1152 : ff;
1153 : ff;
1154 : ff;
1155 : ff;
1156 : ff;
1157 : ff;
1158 : ff;
1159 : ff;
115A : ff;
115B : ff;
115C : ff;
115D : ff;
115E : ff;
115F : ff;
1160 : ff;
1161 : ff;
1162 : ff;
1163 : ff;
1164 : ff;
1165 : ff;
1166 : ff;
1167 : ff;
1168 : ff;
1169 : ff;
116A : ff;
116B : ff;
116C : ff;
116D : ff;
116E : ff;
116F : ff;
1170 : ff;
1171 : ff;
1172 : ff;
1173 : ff;
1174 : ff;
1175 : ff;
1176 : ff;
1177 : ff;
1178 : ff;
1179 : ff;
117A : ff;
117B : ff;
117C : ff;
117D : ff;
117E : ff;
117F : ff;
1180 : ff;
1181 : ff;
1182 : ff;
1183 : ff;
1184 : ff;
1185 : ff;
1186 : ff;
1187 : ff;
1188 : ff;
1189 : ff;
118A : ff;
118B : ff;
118C : ff;
118D : ff;
118E : ff;
118F : ff;
1190 : ff;
1191 : ff;
1192 : ff;
1193 : ff;
1194 : ff;
1195 : ff;
1196 : ff;
1197 : ff;
1198 : ff;
1199 : ff;
119A : ff;
119B : ff;
119C : ff;
119D : ff;
119E : ff;
119F : ff;
11A0 : ff;
11A1 : ff;
11A2 : ff;
11A3 : ff;
11A4 : ff;
11A5 : ff;
11A6 : ff;
11A7 : ff;
11A8 : ff;
11A9 : ff;
11AA : ff;
11AB : ff;
11AC : ff;
11AD : ff;
11AE : ff;
11AF : ff;
11B0 : ff;
11B1 : ff;
11B2 : ff;
11B3 : ff;
11B4 : ff;
11B5 : ff;
11B6 : ff;
11B7 : ff;
11B8 : ff;
11B9 : ff;
11BA : ff;
11BB : ff;
11BC : ff;
11BD : ff;
11BE : ff;
11BF : ff;
11C0 : ff;
11C1 : ff;
11C2 : ff;
11C3 : ff;
11C4 : ff;
11C5 : ff;
11C6 : ff;
11C7 : ff;
11C8 : ff;
11C9 : ff;
11CA : ff;
11CB : ff;
11CC : ff;
11CD : ff;
11CE : ff;
11CF : ff;
11D0 : ff;
11D1 : ff;
11D2 : ff;
11D3 : ff;
11D4 : ff;
11D5 : ff;
11D6 : ff;
11D7 : ff;
11D8 : ff;
11D9 : ff;
11DA : ff;
11DB : ff;
11DC : ff;
11DD : ff;
11DE : ff;
11DF : ff;
11E0 : ff;
11E1 : ff;
11E2 : ff;
11E3 : ff;
11E4 : ff;
11E5 : ff;
11E6 : ff;
11E7 : ff;
11E8 : ff;
11E9 : ff;
11EA : ff;
11EB : ff;
11EC : ff;
11ED : ff;
11EE : ff;
11EF : ff;
11F0 : ff;
11F1 : ff;
11F2 : ff;
11F3 : ff;
11F4 : ff;
11F5 : ff;
11F6 : ff;
11F7 : ff;
11F8 : ff;
11F9 : ff;
11FA : ff;
11FB : ff;
11FC : ff;
11FD : ff;
11FE : ff;
11FF : ff;
1200 : ff;
1201 : ff;
1202 : ff;
1203 : ff;
1204 : ff;
1205 : ff;
1206 : ff;
1207 : ff;
1208 : ff;
1209 : ff;
120A : ff;
120B : ff;
120C : ff;
120D : ff;
120E : ff;
120F : ff;
1210 : ff;
1211 : ff;
1212 : ff;
1213 : ff;
1214 : ff;
1215 : ff;
1216 : ff;
1217 : ff;
1218 : ff;
1219 : ff;
121A : ff;
121B : ff;
121C : ff;
121D : ff;
121E : ff;
121F : ff;
1220 : ff;
1221 : ff;
1222 : ff;
1223 : ff;
1224 : ff;
1225 : ff;
1226 : ff;
1227 : ff;
1228 : ff;
1229 : ff;
122A : ff;
122B : ff;
122C : ff;
122D : ff;
122E : ff;
122F : ff;
1230 : ff;
1231 : ff;
1232 : ff;
1233 : ff;
1234 : ff;
1235 : ff;
1236 : ff;
1237 : ff;
1238 : ff;
1239 : ff;
123A : ff;
123B : ff;
123C : ff;
123D : ff;
123E : ff;
123F : ff;
1240 : ff;
1241 : ff;
1242 : ff;
1243 : ff;
1244 : ff;
1245 : ff;
1246 : ff;
1247 : ff;
1248 : ff;
1249 : ff;
124A : ff;
124B : ff;
124C : ff;
124D : ff;
124E : ff;
124F : ff;
1250 : ff;
1251 : ff;
1252 : ff;
1253 : ff;
1254 : ff;
1255 : ff;
1256 : ff;
1257 : ff;
1258 : ff;
1259 : ff;
125A : ff;
125B : ff;
125C : ff;
125D : ff;
125E : ff;
125F : ff;
1260 : ff;
1261 : ff;
1262 : ff;
1263 : ff;
1264 : ff;
1265 : ff;
1266 : ff;
1267 : ff;
1268 : ff;
1269 : ff;
126A : ff;
126B : ff;
126C : ff;
126D : ff;
126E : ff;
126F : ff;
1270 : ff;
1271 : ff;
1272 : ff;
1273 : ff;
1274 : ff;
1275 : ff;
1276 : ff;
1277 : ff;
1278 : ff;
1279 : ff;
127A : ff;
127B : ff;
127C : ff;
127D : ff;
127E : ff;
127F : ff;
1280 : ff;
1281 : ff;
1282 : ff;
1283 : ff;
1284 : ff;
1285 : ff;
1286 : ff;
1287 : ff;
1288 : ff;
1289 : ff;
128A : ff;
128B : ff;
128C : ff;
128D : ff;
128E : ff;
128F : ff;
1290 : ff;
1291 : ff;
1292 : ff;
1293 : ff;
1294 : ff;
1295 : ff;
1296 : ff;
1297 : ff;
1298 : ff;
1299 : ff;
129A : ff;
129B : ff;
129C : ff;
129D : ff;
129E : ff;
129F : ff;
12A0 : ff;
12A1 : ff;
12A2 : ff;
12A3 : ff;
12A4 : ff;
12A5 : ff;
12A6 : ff;
12A7 : ff;
12A8 : ff;
12A9 : ff;
12AA : ff;
12AB : ff;
12AC : ff;
12AD : ff;
12AE : ff;
12AF : ff;
12B0 : ff;
12B1 : ff;
12B2 : ff;
12B3 : ff;
12B4 : ff;
12B5 : ff;
12B6 : ff;
12B7 : ff;
12B8 : ff;
12B9 : ff;
12BA : ff;
12BB : ff;
12BC : ff;
12BD : ff;
12BE : ff;
12BF : ff;
12C0 : ff;
12C1 : ff;
12C2 : ff;
12C3 : ff;
12C4 : ff;
12C5 : ff;
12C6 : ff;
12C7 : ff;
12C8 : ff;
12C9 : ff;
12CA : ff;
12CB : ff;
12CC : ff;
12CD : ff;
12CE : ff;
12CF : ff;
12D0 : ff;
12D1 : ff;
12D2 : ff;
12D3 : ff;
12D4 : ff;
12D5 : ff;
12D6 : ff;
12D7 : ff;
12D8 : ff;
12D9 : ff;
12DA : ff;
12DB : ff;
12DC : ff;
12DD : ff;
12DE : ff;
12DF : ff;
12E0 : ff;
12E1 : ff;
12E2 : ff;
12E3 : ff;
12E4 : ff;
12E5 : ff;
12E6 : ff;
12E7 : ff;
12E8 : ff;
12E9 : ff;
12EA : ff;
12EB : ff;
12EC : ff;
12ED : ff;
12EE : ff;
12EF : ff;
12F0 : ff;
12F1 : ff;
12F2 : ff;
12F3 : ff;
12F4 : ff;
12F5 : ff;
12F6 : ff;
12F7 : ff;
12F8 : ff;
12F9 : ff;
12FA : ff;
12FB : ff;
12FC : ff;
12FD : ff;
12FE : ff;
12FF : ff;
1300 : ff;
1301 : ff;
1302 : ff;
1303 : ff;
1304 : ff;
1305 : ff;
1306 : ff;
1307 : ff;
1308 : ff;
1309 : ff;
130A : ff;
130B : ff;
130C : ff;
130D : ff;
130E : ff;
130F : ff;
1310 : ff;
1311 : ff;
1312 : ff;
1313 : ff;
1314 : ff;
1315 : ff;
1316 : ff;
1317 : ff;
1318 : ff;
1319 : ff;
131A : ff;
131B : ff;
131C : ff;
131D : ff;
131E : ff;
131F : ff;
1320 : ff;
1321 : ff;
1322 : ff;
1323 : ff;
1324 : ff;
1325 : ff;
1326 : ff;
1327 : ff;
1328 : ff;
1329 : ff;
132A : ff;
132B : ff;
132C : ff;
132D : ff;
132E : ff;
132F : ff;
1330 : ff;
1331 : ff;
1332 : ff;
1333 : ff;
1334 : ff;
1335 : ff;
1336 : ff;
1337 : ff;
1338 : ff;
1339 : ff;
133A : ff;
133B : ff;
133C : ff;
133D : ff;
133E : ff;
133F : ff;
1340 : ff;
1341 : ff;
1342 : ff;
1343 : ff;
1344 : ff;
1345 : ff;
1346 : ff;
1347 : ff;
1348 : ff;
1349 : ff;
134A : ff;
134B : ff;
134C : ff;
134D : ff;
134E : ff;
134F : ff;
1350 : ff;
1351 : ff;
1352 : ff;
1353 : ff;
1354 : ff;
1355 : ff;
1356 : ff;
1357 : ff;
1358 : ff;
1359 : ff;
135A : ff;
135B : ff;
135C : ff;
135D : ff;
135E : ff;
135F : ff;
1360 : ff;
1361 : ff;
1362 : ff;
1363 : ff;
1364 : ff;
1365 : ff;
1366 : ff;
1367 : ff;
1368 : ff;
1369 : ff;
136A : ff;
136B : ff;
136C : ff;
136D : ff;
136E : ff;
136F : ff;
1370 : ff;
1371 : ff;
1372 : ff;
1373 : ff;
1374 : ff;
1375 : ff;
1376 : ff;
1377 : ff;
1378 : ff;
1379 : ff;
137A : ff;
137B : ff;
137C : ff;
137D : ff;
137E : ff;
137F : ff;
1380 : ff;
1381 : ff;
1382 : ff;
1383 : ff;
1384 : ff;
1385 : ff;
1386 : ff;
1387 : ff;
1388 : ff;
1389 : ff;
138A : ff;
138B : ff;
138C : ff;
138D : ff;
138E : ff;
138F : ff;
1390 : ff;
1391 : ff;
1392 : ff;
1393 : ff;
1394 : ff;
1395 : ff;
1396 : ff;
1397 : ff;
1398 : ff;
1399 : ff;
139A : ff;
139B : ff;
139C : ff;
139D : ff;
139E : ff;
139F : ff;
13A0 : ff;
13A1 : ff;
13A2 : ff;
13A3 : ff;
13A4 : ff;
13A5 : ff;
13A6 : ff;
13A7 : ff;
13A8 : ff;
13A9 : ff;
13AA : ff;
13AB : ff;
13AC : ff;
13AD : ff;
13AE : ff;
13AF : ff;
13B0 : ff;
13B1 : ff;
13B2 : ff;
13B3 : ff;
13B4 : ff;
13B5 : ff;
13B6 : ff;
13B7 : ff;
13B8 : ff;
13B9 : ff;
13BA : ff;
13BB : ff;
13BC : ff;
13BD : ff;
13BE : ff;
13BF : ff;
13C0 : ff;
13C1 : ff;
13C2 : ff;
13C3 : ff;
13C4 : ff;
13C5 : ff;
13C6 : ff;
13C7 : ff;
13C8 : ff;
13C9 : ff;
13CA : ff;
13CB : ff;
13CC : ff;
13CD : ff;
13CE : ff;
13CF : ff;
13D0 : ff;
13D1 : ff;
13D2 : ff;
13D3 : ff;
13D4 : ff;
13D5 : ff;
13D6 : ff;
13D7 : ff;
13D8 : ff;
13D9 : ff;
13DA : ff;
13DB : ff;
13DC : ff;
13DD : ff;
13DE : ff;
13DF : ff;
13E0 : ff;
13E1 : ff;
13E2 : ff;
13E3 : ff;
13E4 : ff;
13E5 : ff;
13E6 : ff;
13E7 : ff;
13E8 : ff;
13E9 : ff;
13EA : ff;
13EB : ff;
13EC : ff;
13ED : ff;
13EE : ff;
13EF : ff;
13F0 : ff;
13F1 : ff;
13F2 : ff;
13F3 : ff;
13F4 : ff;
13F5 : ff;
13F6 : ff;
13F7 : ff;
13F8 : ff;
13F9 : ff;
13FA : ff;
13FB : ff;
13FC : ff;
13FD : ff;
13FE : ff;
13FF : ff;
1400 : ff;
1401 : ff;
1402 : ff;
1403 : ff;
1404 : ff;
1405 : ff;
1406 : ff;
1407 : ff;
1408 : ff;
1409 : ff;
140A : ff;
140B : ff;
140C : ff;
140D : ff;
140E : ff;
140F : ff;
1410 : ff;
1411 : ff;
1412 : ff;
1413 : ff;
1414 : ff;
1415 : ff;
1416 : ff;
1417 : ff;
1418 : ff;
1419 : ff;
141A : ff;
141B : ff;
141C : ff;
141D : ff;
141E : ff;
141F : ff;
1420 : ff;
1421 : ff;
1422 : ff;
1423 : ff;
1424 : ff;
1425 : ff;
1426 : ff;
1427 : ff;
1428 : ff;
1429 : ff;
142A : ff;
142B : ff;
142C : ff;
142D : ff;
142E : ff;
142F : ff;
1430 : ff;
1431 : ff;
1432 : ff;
1433 : ff;
1434 : ff;
1435 : ff;
1436 : ff;
1437 : ff;
1438 : ff;
1439 : ff;
143A : ff;
143B : ff;
143C : ff;
143D : ff;
143E : ff;
143F : ff;
1440 : ff;
1441 : ff;
1442 : ff;
1443 : ff;
1444 : ff;
1445 : ff;
1446 : ff;
1447 : ff;
1448 : ff;
1449 : ff;
144A : ff;
144B : ff;
144C : ff;
144D : ff;
144E : ff;
144F : ff;
1450 : ff;
1451 : ff;
1452 : ff;
1453 : ff;
1454 : ff;
1455 : ff;
1456 : ff;
1457 : ff;
1458 : ff;
1459 : ff;
145A : ff;
145B : ff;
145C : ff;
145D : ff;
145E : ff;
145F : ff;
1460 : ff;
1461 : ff;
1462 : ff;
1463 : ff;
1464 : ff;
1465 : ff;
1466 : ff;
1467 : ff;
1468 : ff;
1469 : ff;
146A : ff;
146B : ff;
146C : ff;
146D : ff;
146E : ff;
146F : ff;
1470 : ff;
1471 : ff;
1472 : ff;
1473 : ff;
1474 : ff;
1475 : ff;
1476 : ff;
1477 : ff;
1478 : ff;
1479 : ff;
147A : ff;
147B : ff;
147C : ff;
147D : ff;
147E : ff;
147F : ff;
1480 : ff;
1481 : ff;
1482 : ff;
1483 : ff;
1484 : ff;
1485 : ff;
1486 : ff;
1487 : ff;
1488 : ff;
1489 : ff;
148A : ff;
148B : ff;
148C : ff;
148D : ff;
148E : ff;
148F : ff;
1490 : ff;
1491 : ff;
1492 : ff;
1493 : ff;
1494 : ff;
1495 : ff;
1496 : ff;
1497 : ff;
1498 : ff;
1499 : ff;
149A : ff;
149B : ff;
149C : ff;
149D : ff;
149E : ff;
149F : ff;
14A0 : ff;
14A1 : ff;
14A2 : ff;
14A3 : ff;
14A4 : ff;
14A5 : ff;
14A6 : ff;
14A7 : ff;
14A8 : ff;
14A9 : ff;
14AA : ff;
14AB : ff;
14AC : ff;
14AD : ff;
14AE : ff;
14AF : ff;
14B0 : ff;
14B1 : ff;
14B2 : ff;
14B3 : ff;
14B4 : ff;
14B5 : ff;
14B6 : ff;
14B7 : ff;
14B8 : ff;
14B9 : ff;
14BA : ff;
14BB : ff;
14BC : ff;
14BD : ff;
14BE : ff;
14BF : ff;
14C0 : ff;
14C1 : ff;
14C2 : ff;
14C3 : ff;
14C4 : ff;
14C5 : ff;
14C6 : ff;
14C7 : ff;
14C8 : ff;
14C9 : ff;
14CA : ff;
14CB : ff;
14CC : ff;
14CD : ff;
14CE : ff;
14CF : ff;
14D0 : ff;
14D1 : ff;
14D2 : ff;
14D3 : ff;
14D4 : ff;
14D5 : ff;
14D6 : ff;
14D7 : ff;
14D8 : ff;
14D9 : ff;
14DA : ff;
14DB : ff;
14DC : ff;
14DD : ff;
14DE : ff;
14DF : ff;
14E0 : ff;
14E1 : ff;
14E2 : ff;
14E3 : ff;
14E4 : ff;
14E5 : ff;
14E6 : ff;
14E7 : ff;
14E8 : ff;
14E9 : ff;
14EA : ff;
14EB : ff;
14EC : ff;
14ED : ff;
14EE : ff;
14EF : ff;
14F0 : ff;
14F1 : ff;
14F2 : ff;
14F3 : ff;
14F4 : ff;
14F5 : ff;
14F6 : ff;
14F7 : ff;
14F8 : ff;
14F9 : ff;
14FA : ff;
14FB : ff;
14FC : ff;
14FD : ff;
14FE : ff;
14FF : ff;
1500 : ff;
1501 : ff;
1502 : ff;
1503 : ff;
1504 : ff;
1505 : ff;
1506 : ff;
1507 : ff;
1508 : ff;
1509 : ff;
150A : ff;
150B : ff;
150C : ff;
150D : ff;
150E : ff;
150F : ff;
1510 : ff;
1511 : ff;
1512 : ff;
1513 : ff;
1514 : ff;
1515 : ff;
1516 : ff;
1517 : ff;
1518 : ff;
1519 : ff;
151A : ff;
151B : ff;
151C : ff;
151D : ff;
151E : ff;
151F : ff;
1520 : ff;
1521 : ff;
1522 : ff;
1523 : ff;
1524 : ff;
1525 : ff;
1526 : ff;
1527 : ff;
1528 : ff;
1529 : ff;
152A : ff;
152B : ff;
152C : ff;
152D : ff;
152E : ff;
152F : ff;
1530 : ff;
1531 : ff;
1532 : ff;
1533 : ff;
1534 : ff;
1535 : ff;
1536 : ff;
1537 : ff;
1538 : ff;
1539 : ff;
153A : ff;
153B : ff;
153C : ff;
153D : ff;
153E : ff;
153F : ff;
1540 : ff;
1541 : ff;
1542 : ff;
1543 : ff;
1544 : ff;
1545 : ff;
1546 : ff;
1547 : ff;
1548 : ff;
1549 : ff;
154A : ff;
154B : ff;
154C : ff;
154D : ff;
154E : ff;
154F : ff;
1550 : ff;
1551 : ff;
1552 : ff;
1553 : ff;
1554 : ff;
1555 : ff;
1556 : ff;
1557 : ff;
1558 : ff;
1559 : ff;
155A : ff;
155B : ff;
155C : ff;
155D : ff;
155E : ff;
155F : ff;
1560 : ff;
1561 : ff;
1562 : ff;
1563 : ff;
1564 : ff;
1565 : ff;
1566 : ff;
1567 : ff;
1568 : ff;
1569 : ff;
156A : ff;
156B : ff;
156C : ff;
156D : ff;
156E : ff;
156F : ff;
1570 : ff;
1571 : ff;
1572 : ff;
1573 : ff;
1574 : ff;
1575 : ff;
1576 : ff;
1577 : ff;
1578 : ff;
1579 : ff;
157A : ff;
157B : ff;
157C : ff;
157D : ff;
157E : ff;
157F : ff;
1580 : ff;
1581 : ff;
1582 : ff;
1583 : ff;
1584 : ff;
1585 : ff;
1586 : ff;
1587 : ff;
1588 : ff;
1589 : ff;
158A : ff;
158B : ff;
158C : ff;
158D : ff;
158E : ff;
158F : ff;
1590 : ff;
1591 : ff;
1592 : ff;
1593 : ff;
1594 : ff;
1595 : ff;
1596 : ff;
1597 : ff;
1598 : ff;
1599 : ff;
159A : ff;
159B : ff;
159C : ff;
159D : ff;
159E : ff;
159F : ff;
15A0 : ff;
15A1 : ff;
15A2 : ff;
15A3 : ff;
15A4 : ff;
15A5 : ff;
15A6 : ff;
15A7 : ff;
15A8 : ff;
15A9 : ff;
15AA : ff;
15AB : ff;
15AC : ff;
15AD : ff;
15AE : ff;
15AF : ff;
15B0 : ff;
15B1 : ff;
15B2 : ff;
15B3 : ff;
15B4 : ff;
15B5 : ff;
15B6 : ff;
15B7 : ff;
15B8 : ff;
15B9 : ff;
15BA : ff;
15BB : ff;
15BC : ff;
15BD : ff;
15BE : ff;
15BF : ff;
15C0 : ff;
15C1 : ff;
15C2 : ff;
15C3 : ff;
15C4 : ff;
15C5 : ff;
15C6 : ff;
15C7 : ff;
15C8 : ff;
15C9 : ff;
15CA : ff;
15CB : ff;
15CC : ff;
15CD : ff;
15CE : ff;
15CF : ff;
15D0 : ff;
15D1 : ff;
15D2 : ff;
15D3 : ff;
15D4 : ff;
15D5 : ff;
15D6 : ff;
15D7 : ff;
15D8 : ff;
15D9 : ff;
15DA : ff;
15DB : ff;
15DC : ff;
15DD : ff;
15DE : ff;
15DF : ff;
15E0 : ff;
15E1 : ff;
15E2 : ff;
15E3 : ff;
15E4 : ff;
15E5 : ff;
15E6 : ff;
15E7 : ff;
15E8 : ff;
15E9 : ff;
15EA : ff;
15EB : ff;
15EC : ff;
15ED : ff;
15EE : ff;
15EF : ff;
15F0 : ff;
15F1 : ff;
15F2 : ff;
15F3 : ff;
15F4 : ff;
15F5 : ff;
15F6 : ff;
15F7 : ff;
15F8 : ff;
15F9 : ff;
15FA : ff;
15FB : ff;
15FC : ff;
15FD : ff;
15FE : ff;
15FF : ff;
1600 : ff;
1601 : ff;
1602 : ff;
1603 : ff;
1604 : ff;
1605 : ff;
1606 : ff;
1607 : ff;
1608 : ff;
1609 : ff;
160A : ff;
160B : ff;
160C : ff;
160D : ff;
160E : ff;
160F : ff;
1610 : ff;
1611 : ff;
1612 : ff;
1613 : ff;
1614 : ff;
1615 : ff;
1616 : ff;
1617 : ff;
1618 : ff;
1619 : ff;
161A : ff;
161B : ff;
161C : ff;
161D : ff;
161E : ff;
161F : ff;
1620 : ff;
1621 : ff;
1622 : ff;
1623 : ff;
1624 : ff;
1625 : ff;
1626 : ff;
1627 : ff;
1628 : ff;
1629 : ff;
162A : ff;
162B : ff;
162C : ff;
162D : ff;
162E : ff;
162F : ff;
1630 : ff;
1631 : ff;
1632 : ff;
1633 : ff;
1634 : ff;
1635 : ff;
1636 : ff;
1637 : ff;
1638 : ff;
1639 : ff;
163A : ff;
163B : ff;
163C : ff;
163D : ff;
163E : ff;
163F : ff;
1640 : ff;
1641 : ff;
1642 : ff;
1643 : ff;
1644 : ff;
1645 : ff;
1646 : ff;
1647 : ff;
1648 : ff;
1649 : ff;
164A : ff;
164B : ff;
164C : ff;
164D : ff;
164E : ff;
164F : ff;
1650 : ff;
1651 : ff;
1652 : ff;
1653 : ff;
1654 : ff;
1655 : ff;
1656 : ff;
1657 : ff;
1658 : ff;
1659 : ff;
165A : ff;
165B : ff;
165C : ff;
165D : ff;
165E : ff;
165F : ff;
1660 : ff;
1661 : ff;
1662 : ff;
1663 : ff;
1664 : ff;
1665 : ff;
1666 : ff;
1667 : ff;
1668 : ff;
1669 : ff;
166A : ff;
166B : ff;
166C : ff;
166D : ff;
166E : ff;
166F : ff;
1670 : ff;
1671 : ff;
1672 : ff;
1673 : ff;
1674 : ff;
1675 : ff;
1676 : ff;
1677 : ff;
1678 : ff;
1679 : ff;
167A : ff;
167B : ff;
167C : ff;
167D : ff;
167E : ff;
167F : ff;
1680 : ff;
1681 : ff;
1682 : ff;
1683 : ff;
1684 : ff;
1685 : ff;
1686 : ff;
1687 : ff;
1688 : ff;
1689 : ff;
168A : ff;
168B : ff;
168C : ff;
168D : ff;
168E : ff;
168F : ff;
1690 : ff;
1691 : ff;
1692 : ff;
1693 : ff;
1694 : ff;
1695 : ff;
1696 : ff;
1697 : ff;
1698 : ff;
1699 : ff;
169A : ff;
169B : ff;
169C : ff;
169D : ff;
169E : ff;
169F : ff;
16A0 : ff;
16A1 : ff;
16A2 : ff;
16A3 : ff;
16A4 : ff;
16A5 : ff;
16A6 : ff;
16A7 : ff;
16A8 : ff;
16A9 : ff;
16AA : ff;
16AB : ff;
16AC : ff;
16AD : ff;
16AE : ff;
16AF : ff;
16B0 : ff;
16B1 : ff;
16B2 : ff;
16B3 : ff;
16B4 : ff;
16B5 : ff;
16B6 : ff;
16B7 : ff;
16B8 : ff;
16B9 : ff;
16BA : ff;
16BB : ff;
16BC : ff;
16BD : ff;
16BE : ff;
16BF : ff;
16C0 : ff;
16C1 : ff;
16C2 : ff;
16C3 : ff;
16C4 : ff;
16C5 : ff;
16C6 : ff;
16C7 : ff;
16C8 : ff;
16C9 : ff;
16CA : ff;
16CB : ff;
16CC : ff;
16CD : ff;
16CE : ff;
16CF : ff;
16D0 : ff;
16D1 : ff;
16D2 : ff;
16D3 : ff;
16D4 : ff;
16D5 : ff;
16D6 : ff;
16D7 : ff;
16D8 : ff;
16D9 : ff;
16DA : ff;
16DB : ff;
16DC : ff;
16DD : ff;
16DE : ff;
16DF : ff;
16E0 : ff;
16E1 : ff;
16E2 : ff;
16E3 : ff;
16E4 : ff;
16E5 : ff;
16E6 : ff;
16E7 : ff;
16E8 : ff;
16E9 : ff;
16EA : ff;
16EB : ff;
16EC : ff;
16ED : ff;
16EE : ff;
16EF : ff;
16F0 : ff;
16F1 : ff;
16F2 : ff;
16F3 : ff;
16F4 : ff;
16F5 : ff;
16F6 : ff;
16F7 : ff;
16F8 : ff;
16F9 : ff;
16FA : ff;
16FB : ff;
16FC : ff;
16FD : ff;
16FE : ff;
16FF : ff;
1700 : ff;
1701 : ff;
1702 : ff;
1703 : ff;
1704 : ff;
1705 : ff;
1706 : ff;
1707 : ff;
1708 : ff;
1709 : ff;
170A : ff;
170B : ff;
170C : ff;
170D : ff;
170E : ff;
170F : ff;
1710 : ff;
1711 : ff;
1712 : ff;
1713 : ff;
1714 : ff;
1715 : ff;
1716 : ff;
1717 : ff;
1718 : ff;
1719 : ff;
171A : ff;
171B : ff;
171C : ff;
171D : ff;
171E : ff;
171F : ff;
1720 : ff;
1721 : ff;
1722 : ff;
1723 : ff;
1724 : ff;
1725 : ff;
1726 : ff;
1727 : ff;
1728 : ff;
1729 : ff;
172A : ff;
172B : ff;
172C : ff;
172D : ff;
172E : ff;
172F : ff;
1730 : ff;
1731 : ff;
1732 : ff;
1733 : ff;
1734 : ff;
1735 : ff;
1736 : ff;
1737 : ff;
1738 : ff;
1739 : ff;
173A : ff;
173B : ff;
173C : ff;
173D : ff;
173E : ff;
173F : ff;
1740 : ff;
1741 : ff;
1742 : ff;
1743 : ff;
1744 : ff;
1745 : ff;
1746 : ff;
1747 : ff;
1748 : ff;
1749 : ff;
174A : ff;
174B : ff;
174C : ff;
174D : ff;
174E : ff;
174F : ff;
1750 : ff;
1751 : ff;
1752 : ff;
1753 : ff;
1754 : ff;
1755 : ff;
1756 : ff;
1757 : ff;
1758 : ff;
1759 : ff;
175A : ff;
175B : ff;
175C : ff;
175D : ff;
175E : ff;
175F : ff;
1760 : ff;
1761 : ff;
1762 : ff;
1763 : ff;
1764 : ff;
1765 : ff;
1766 : ff;
1767 : ff;
1768 : ff;
1769 : ff;
176A : ff;
176B : ff;
176C : ff;
176D : ff;
176E : ff;
176F : ff;
1770 : ff;
1771 : ff;
1772 : ff;
1773 : ff;
1774 : ff;
1775 : ff;
1776 : ff;
1777 : ff;
1778 : ff;
1779 : ff;
177A : ff;
177B : ff;
177C : ff;
177D : ff;
177E : ff;
177F : ff;
1780 : ff;
1781 : ff;
1782 : ff;
1783 : ff;
1784 : ff;
1785 : ff;
1786 : ff;
1787 : ff;
1788 : ff;
1789 : ff;
178A : ff;
178B : ff;
178C : ff;
178D : ff;
178E : ff;
178F : ff;
1790 : ff;
1791 : ff;
1792 : ff;
1793 : ff;
1794 : ff;
1795 : ff;
1796 : ff;
1797 : ff;
1798 : ff;
1799 : ff;
179A : ff;
179B : ff;
179C : ff;
179D : ff;
179E : ff;
179F : ff;
17A0 : ff;
17A1 : ff;
17A2 : ff;
17A3 : ff;
17A4 : ff;
17A5 : ff;
17A6 : ff;
17A7 : ff;
17A8 : ff;
17A9 : ff;
17AA : ff;
17AB : ff;
17AC : ff;
17AD : ff;
17AE : ff;
17AF : ff;
17B0 : ff;
17B1 : ff;
17B2 : ff;
17B3 : ff;
17B4 : ff;
17B5 : ff;
17B6 : ff;
17B7 : ff;
17B8 : ff;
17B9 : ff;
17BA : ff;
17BB : ff;
17BC : ff;
17BD : ff;
17BE : ff;
17BF : ff;
17C0 : ff;
17C1 : ff;
17C2 : ff;
17C3 : ff;
17C4 : ff;
17C5 : ff;
17C6 : ff;
17C7 : ff;
17C8 : ff;
17C9 : ff;
17CA : ff;
17CB : ff;
17CC : ff;
17CD : ff;
17CE : ff;
17CF : ff;
17D0 : ff;
17D1 : ff;
17D2 : ff;
17D3 : ff;
17D4 : ff;
17D5 : ff;
17D6 : ff;
17D7 : ff;
17D8 : ff;
17D9 : ff;
17DA : ff;
17DB : ff;
17DC : ff;
17DD : ff;
17DE : ff;
17DF : ff;
17E0 : ff;
17E1 : ff;
17E2 : ff;
17E3 : ff;
17E4 : ff;
17E5 : ff;
17E6 : ff;
17E7 : ff;
17E8 : ff;
17E9 : ff;
17EA : ff;
17EB : ff;
17EC : ff;
17ED : ff;
17EE : ff;
17EF : ff;
17F0 : ff;
17F1 : ff;
17F2 : ff;
17F3 : ff;
17F4 : ff;
17F5 : ff;
17F6 : ff;
17F7 : ff;
17F8 : ff;
17F9 : ff;
17FA : ff;
17FB : ff;
17FC : ff;
17FD : ff;
17FE : ff;
17FF : ff;
1800 : ff;
1801 : ff;
1802 : ff;
1803 : ff;
1804 : ff;
1805 : ff;
1806 : ff;
1807 : ff;
1808 : ff;
1809 : ff;
180A : ff;
180B : ff;
180C : ff;
180D : ff;
180E : ff;
180F : ff;
1810 : ff;
1811 : ff;
1812 : ff;
1813 : ff;
1814 : ff;
1815 : ff;
1816 : ff;
1817 : ff;
1818 : ff;
1819 : ff;
181A : ff;
181B : ff;
181C : ff;
181D : ff;
181E : ff;
181F : ff;
1820 : ff;
1821 : ff;
1822 : ff;
1823 : ff;
1824 : ff;
1825 : ff;
1826 : ff;
1827 : ff;
1828 : ff;
1829 : ff;
182A : ff;
182B : ff;
182C : ff;
182D : ff;
182E : ff;
182F : ff;
1830 : ff;
1831 : ff;
1832 : ff;
1833 : ff;
1834 : ff;
1835 : ff;
1836 : ff;
1837 : ff;
1838 : ff;
1839 : ff;
183A : ff;
183B : ff;
183C : ff;
183D : ff;
183E : ff;
183F : ff;
1840 : ff;
1841 : ff;
1842 : ff;
1843 : ff;
1844 : ff;
1845 : ff;
1846 : ff;
1847 : ff;
1848 : ff;
1849 : ff;
184A : ff;
184B : ff;
184C : ff;
184D : ff;
184E : ff;
184F : ff;
1850 : ff;
1851 : ff;
1852 : ff;
1853 : ff;
1854 : ff;
1855 : ff;
1856 : ff;
1857 : ff;
1858 : ff;
1859 : ff;
185A : ff;
185B : ff;
185C : ff;
185D : ff;
185E : ff;
185F : ff;
1860 : ff;
1861 : ff;
1862 : ff;
1863 : ff;
1864 : ff;
1865 : ff;
1866 : ff;
1867 : ff;
1868 : ff;
1869 : ff;
186A : ff;
186B : ff;
186C : ff;
186D : ff;
186E : ff;
186F : ff;
1870 : ff;
1871 : ff;
1872 : ff;
1873 : ff;
1874 : ff;
1875 : ff;
1876 : ff;
1877 : ff;
1878 : ff;
1879 : ff;
187A : ff;
187B : ff;
187C : ff;
187D : ff;
187E : ff;
187F : ff;
1880 : ff;
1881 : ff;
1882 : ff;
1883 : ff;
1884 : ff;
1885 : ff;
1886 : ff;
1887 : ff;
1888 : ff;
1889 : ff;
188A : ff;
188B : ff;
188C : ff;
188D : ff;
188E : ff;
188F : ff;
1890 : ff;
1891 : ff;
1892 : ff;
1893 : ff;
1894 : ff;
1895 : ff;
1896 : ff;
1897 : ff;
1898 : ff;
1899 : ff;
189A : ff;
189B : ff;
189C : ff;
189D : ff;
189E : ff;
189F : ff;
18A0 : ff;
18A1 : ff;
18A2 : ff;
18A3 : ff;
18A4 : ff;
18A5 : ff;
18A6 : ff;
18A7 : ff;
18A8 : ff;
18A9 : ff;
18AA : ff;
18AB : ff;
18AC : ff;
18AD : ff;
18AE : ff;
18AF : ff;
18B0 : ff;
18B1 : ff;
18B2 : ff;
18B3 : ff;
18B4 : ff;
18B5 : ff;
18B6 : ff;
18B7 : ff;
18B8 : ff;
18B9 : ff;
18BA : ff;
18BB : ff;
18BC : ff;
18BD : ff;
18BE : ff;
18BF : ff;
18C0 : ff;
18C1 : ff;
18C2 : ff;
18C3 : ff;
18C4 : ff;
18C5 : ff;
18C6 : ff;
18C7 : ff;
18C8 : ff;
18C9 : ff;
18CA : ff;
18CB : ff;
18CC : ff;
18CD : ff;
18CE : ff;
18CF : ff;
18D0 : ff;
18D1 : ff;
18D2 : ff;
18D3 : ff;
18D4 : ff;
18D5 : ff;
18D6 : ff;
18D7 : ff;
18D8 : ff;
18D9 : ff;
18DA : ff;
18DB : ff;
18DC : ff;
18DD : ff;
18DE : ff;
18DF : ff;
18E0 : ff;
18E1 : ff;
18E2 : ff;
18E3 : ff;
18E4 : ff;
18E5 : ff;
18E6 : ff;
18E7 : ff;
18E8 : ff;
18E9 : ff;
18EA : ff;
18EB : ff;
18EC : ff;
18ED : ff;
18EE : ff;
18EF : ff;
18F0 : ff;
18F1 : ff;
18F2 : ff;
18F3 : ff;
18F4 : ff;
18F5 : ff;
18F6 : ff;
18F7 : ff;
18F8 : ff;
18F9 : ff;
18FA : ff;
18FB : ff;
18FC : ff;
18FD : ff;
18FE : ff;
18FF : ff;
1900 : ff;
1901 : ff;
1902 : ff;
1903 : ff;
1904 : ff;
1905 : ff;
1906 : ff;
1907 : ff;
1908 : ff;
1909 : ff;
190A : ff;
190B : ff;
190C : ff;
190D : ff;
190E : ff;
190F : ff;
1910 : ff;
1911 : ff;
1912 : ff;
1913 : ff;
1914 : ff;
1915 : ff;
1916 : ff;
1917 : ff;
1918 : ff;
1919 : ff;
191A : ff;
191B : ff;
191C : ff;
191D : ff;
191E : ff;
191F : ff;
1920 : ff;
1921 : ff;
1922 : ff;
1923 : ff;
1924 : ff;
1925 : ff;
1926 : ff;
1927 : ff;
1928 : ff;
1929 : ff;
192A : ff;
192B : ff;
192C : ff;
192D : ff;
192E : ff;
192F : ff;
1930 : ff;
1931 : ff;
1932 : ff;
1933 : ff;
1934 : ff;
1935 : ff;
1936 : ff;
1937 : ff;
1938 : ff;
1939 : ff;
193A : ff;
193B : ff;
193C : ff;
193D : ff;
193E : ff;
193F : ff;
1940 : ff;
1941 : ff;
1942 : ff;
1943 : ff;
1944 : ff;
1945 : ff;
1946 : ff;
1947 : ff;
1948 : ff;
1949 : ff;
194A : ff;
194B : ff;
194C : ff;
194D : ff;
194E : ff;
194F : ff;
1950 : ff;
1951 : ff;
1952 : ff;
1953 : ff;
1954 : ff;
1955 : ff;
1956 : ff;
1957 : ff;
1958 : ff;
1959 : ff;
195A : ff;
195B : ff;
195C : ff;
195D : ff;
195E : ff;
195F : ff;
1960 : ff;
1961 : ff;
1962 : ff;
1963 : ff;
1964 : ff;
1965 : ff;
1966 : ff;
1967 : ff;
1968 : ff;
1969 : ff;
196A : ff;
196B : ff;
196C : ff;
196D : ff;
196E : ff;
196F : ff;
1970 : ff;
1971 : ff;
1972 : ff;
1973 : ff;
1974 : ff;
1975 : ff;
1976 : ff;
1977 : ff;
1978 : ff;
1979 : ff;
197A : ff;
197B : ff;
197C : ff;
197D : ff;
197E : ff;
197F : ff;
1980 : ff;
1981 : ff;
1982 : ff;
1983 : ff;
1984 : ff;
1985 : ff;
1986 : ff;
1987 : ff;
1988 : ff;
1989 : ff;
198A : ff;
198B : ff;
198C : ff;
198D : ff;
198E : ff;
198F : ff;
1990 : ff;
1991 : ff;
1992 : ff;
1993 : ff;
1994 : ff;
1995 : ff;
1996 : ff;
1997 : ff;
1998 : ff;
1999 : ff;
199A : ff;
199B : ff;
199C : ff;
199D : ff;
199E : ff;
199F : ff;
19A0 : ff;
19A1 : ff;
19A2 : ff;
19A3 : ff;
19A4 : ff;
19A5 : ff;
19A6 : ff;
19A7 : ff;
19A8 : ff;
19A9 : ff;
19AA : ff;
19AB : ff;
19AC : ff;
19AD : ff;
19AE : ff;
19AF : ff;
19B0 : ff;
19B1 : ff;
19B2 : ff;
19B3 : ff;
19B4 : ff;
19B5 : ff;
19B6 : ff;
19B7 : ff;
19B8 : ff;
19B9 : ff;
19BA : ff;
19BB : ff;
19BC : ff;
19BD : ff;
19BE : ff;
19BF : ff;
19C0 : ff;
19C1 : ff;
19C2 : ff;
19C3 : ff;
19C4 : ff;
19C5 : ff;
19C6 : ff;
19C7 : ff;
19C8 : ff;
19C9 : ff;
19CA : ff;
19CB : ff;
19CC : ff;
19CD : ff;
19CE : ff;
19CF : ff;
19D0 : ff;
19D1 : ff;
19D2 : ff;
19D3 : ff;
19D4 : ff;
19D5 : ff;
19D6 : ff;
19D7 : ff;
19D8 : ff;
19D9 : ff;
19DA : ff;
19DB : ff;
19DC : ff;
19DD : ff;
19DE : ff;
19DF : ff;
19E0 : ff;
19E1 : ff;
19E2 : ff;
19E3 : ff;
19E4 : ff;
19E5 : ff;
19E6 : ff;
19E7 : ff;
19E8 : ff;
19E9 : ff;
19EA : ff;
19EB : ff;
19EC : ff;
19ED : ff;
19EE : ff;
19EF : ff;
19F0 : ff;
19F1 : ff;
19F2 : ff;
19F3 : ff;
19F4 : ff;
19F5 : ff;
19F6 : ff;
19F7 : ff;
19F8 : ff;
19F9 : ff;
19FA : ff;
19FB : ff;
19FC : ff;
19FD : ff;
19FE : ff;
19FF : ff;
1A00 : ff;
1A01 : ff;
1A02 : ff;
1A03 : ff;
1A04 : ff;
1A05 : ff;
1A06 : ff;
1A07 : ff;
1A08 : ff;
1A09 : ff;
1A0A : ff;
1A0B : ff;
1A0C : ff;
1A0D : ff;
1A0E : ff;
1A0F : ff;
1A10 : ff;
1A11 : ff;
1A12 : ff;
1A13 : ff;
1A14 : ff;
1A15 : ff;
1A16 : ff;
1A17 : ff;
1A18 : ff;
1A19 : ff;
1A1A : ff;
1A1B : ff;
1A1C : ff;
1A1D : ff;
1A1E : ff;
1A1F : ff;
1A20 : ff;
1A21 : ff;
1A22 : ff;
1A23 : ff;
1A24 : ff;
1A25 : ff;
1A26 : ff;
1A27 : ff;
1A28 : ff;
1A29 : ff;
1A2A : ff;
1A2B : ff;
1A2C : ff;
1A2D : ff;
1A2E : ff;
1A2F : ff;
1A30 : ff;
1A31 : ff;
1A32 : ff;
1A33 : ff;
1A34 : ff;
1A35 : ff;
1A36 : ff;
1A37 : ff;
1A38 : ff;
1A39 : ff;
1A3A : ff;
1A3B : ff;
1A3C : ff;
1A3D : ff;
1A3E : ff;
1A3F : ff;
1A40 : ff;
1A41 : ff;
1A42 : ff;
1A43 : ff;
1A44 : ff;
1A45 : ff;
1A46 : ff;
1A47 : ff;
1A48 : ff;
1A49 : ff;
1A4A : ff;
1A4B : ff;
1A4C : ff;
1A4D : ff;
1A4E : ff;
1A4F : ff;
1A50 : ff;
1A51 : ff;
1A52 : ff;
1A53 : ff;
1A54 : ff;
1A55 : ff;
1A56 : ff;
1A57 : ff;
1A58 : ff;
1A59 : ff;
1A5A : ff;
1A5B : ff;
1A5C : ff;
1A5D : ff;
1A5E : ff;
1A5F : ff;
1A60 : ff;
1A61 : ff;
1A62 : ff;
1A63 : ff;
1A64 : ff;
1A65 : ff;
1A66 : ff;
1A67 : ff;
1A68 : ff;
1A69 : ff;
1A6A : ff;
1A6B : ff;
1A6C : ff;
1A6D : ff;
1A6E : ff;
1A6F : ff;
1A70 : ff;
1A71 : ff;
1A72 : ff;
1A73 : ff;
1A74 : ff;
1A75 : ff;
1A76 : ff;
1A77 : ff;
1A78 : ff;
1A79 : ff;
1A7A : ff;
1A7B : ff;
1A7C : ff;
1A7D : ff;
1A7E : ff;
1A7F : ff;
1A80 : ff;
1A81 : ff;
1A82 : ff;
1A83 : ff;
1A84 : ff;
1A85 : ff;
1A86 : ff;
1A87 : ff;
1A88 : ff;
1A89 : ff;
1A8A : ff;
1A8B : ff;
1A8C : ff;
1A8D : ff;
1A8E : ff;
1A8F : ff;
1A90 : ff;
1A91 : ff;
1A92 : ff;
1A93 : ff;
1A94 : ff;
1A95 : ff;
1A96 : ff;
1A97 : ff;
1A98 : ff;
1A99 : ff;
1A9A : ff;
1A9B : ff;
1A9C : ff;
1A9D : ff;
1A9E : ff;
1A9F : ff;
1AA0 : ff;
1AA1 : ff;
1AA2 : ff;
1AA3 : ff;
1AA4 : ff;
1AA5 : ff;
1AA6 : ff;
1AA7 : ff;
1AA8 : ff;
1AA9 : ff;
1AAA : ff;
1AAB : ff;
1AAC : ff;
1AAD : ff;
1AAE : ff;
1AAF : ff;
1AB0 : ff;
1AB1 : ff;
1AB2 : ff;
1AB3 : ff;
1AB4 : ff;
1AB5 : ff;
1AB6 : ff;
1AB7 : ff;
1AB8 : ff;
1AB9 : ff;
1ABA : ff;
1ABB : ff;
1ABC : ff;
1ABD : ff;
1ABE : ff;
1ABF : ff;
1AC0 : ff;
1AC1 : ff;
1AC2 : ff;
1AC3 : ff;
1AC4 : ff;
1AC5 : ff;
1AC6 : ff;
1AC7 : ff;
1AC8 : ff;
1AC9 : ff;
1ACA : ff;
1ACB : ff;
1ACC : ff;
1ACD : ff;
1ACE : ff;
1ACF : ff;
1AD0 : ff;
1AD1 : ff;
1AD2 : ff;
1AD3 : ff;
1AD4 : ff;
1AD5 : ff;
1AD6 : ff;
1AD7 : ff;
1AD8 : ff;
1AD9 : ff;
1ADA : ff;
1ADB : ff;
1ADC : ff;
1ADD : ff;
1ADE : ff;
1ADF : ff;
1AE0 : ff;
1AE1 : ff;
1AE2 : ff;
1AE3 : ff;
1AE4 : ff;
1AE5 : ff;
1AE6 : ff;
1AE7 : ff;
1AE8 : ff;
1AE9 : ff;
1AEA : ff;
1AEB : ff;
1AEC : ff;
1AED : ff;
1AEE : ff;
1AEF : ff;
1AF0 : ff;
1AF1 : ff;
1AF2 : ff;
1AF3 : ff;
1AF4 : ff;
1AF5 : ff;
1AF6 : ff;
1AF7 : ff;
1AF8 : ff;
1AF9 : ff;
1AFA : ff;
1AFB : ff;
1AFC : ff;
1AFD : ff;
1AFE : ff;
1AFF : ff;
1B00 : ff;
1B01 : ff;
1B02 : ff;
1B03 : ff;
1B04 : ff;
1B05 : ff;
1B06 : ff;
1B07 : ff;
1B08 : ff;
1B09 : ff;
1B0A : ff;
1B0B : ff;
1B0C : ff;
1B0D : ff;
1B0E : ff;
1B0F : ff;
1B10 : ff;
1B11 : ff;
1B12 : ff;
1B13 : ff;
1B14 : ff;
1B15 : ff;
1B16 : ff;
1B17 : ff;
1B18 : ff;
1B19 : ff;
1B1A : ff;
1B1B : ff;
1B1C : ff;
1B1D : ff;
1B1E : ff;
1B1F : ff;
1B20 : ff;
1B21 : ff;
1B22 : ff;
1B23 : ff;
1B24 : ff;
1B25 : ff;
1B26 : ff;
1B27 : ff;
1B28 : ff;
1B29 : ff;
1B2A : ff;
1B2B : ff;
1B2C : ff;
1B2D : ff;
1B2E : ff;
1B2F : ff;
1B30 : ff;
1B31 : ff;
1B32 : ff;
1B33 : ff;
1B34 : ff;
1B35 : ff;
1B36 : ff;
1B37 : ff;
1B38 : ff;
1B39 : ff;
1B3A : ff;
1B3B : ff;
1B3C : ff;
1B3D : ff;
1B3E : ff;
1B3F : ff;
1B40 : ff;
1B41 : ff;
1B42 : ff;
1B43 : ff;
1B44 : ff;
1B45 : ff;
1B46 : ff;
1B47 : ff;
1B48 : ff;
1B49 : ff;
1B4A : ff;
1B4B : ff;
1B4C : ff;
1B4D : ff;
1B4E : ff;
1B4F : ff;
1B50 : ff;
1B51 : ff;
1B52 : ff;
1B53 : ff;
1B54 : ff;
1B55 : ff;
1B56 : ff;
1B57 : ff;
1B58 : ff;
1B59 : ff;
1B5A : ff;
1B5B : ff;
1B5C : ff;
1B5D : ff;
1B5E : ff;
1B5F : ff;
1B60 : ff;
1B61 : ff;
1B62 : ff;
1B63 : ff;
1B64 : ff;
1B65 : ff;
1B66 : ff;
1B67 : ff;
1B68 : ff;
1B69 : ff;
1B6A : ff;
1B6B : ff;
1B6C : ff;
1B6D : ff;
1B6E : ff;
1B6F : ff;
1B70 : ff;
1B71 : ff;
1B72 : ff;
1B73 : ff;
1B74 : ff;
1B75 : ff;
1B76 : ff;
1B77 : ff;
1B78 : ff;
1B79 : ff;
1B7A : ff;
1B7B : ff;
1B7C : ff;
1B7D : ff;
1B7E : ff;
1B7F : ff;
1B80 : ff;
1B81 : ff;
1B82 : ff;
1B83 : ff;
1B84 : ff;
1B85 : ff;
1B86 : ff;
1B87 : ff;
1B88 : ff;
1B89 : ff;
1B8A : ff;
1B8B : ff;
1B8C : ff;
1B8D : ff;
1B8E : ff;
1B8F : ff;
1B90 : ff;
1B91 : ff;
1B92 : ff;
1B93 : ff;
1B94 : ff;
1B95 : ff;
1B96 : ff;
1B97 : ff;
1B98 : ff;
1B99 : ff;
1B9A : ff;
1B9B : ff;
1B9C : ff;
1B9D : ff;
1B9E : ff;
1B9F : ff;
1BA0 : ff;
1BA1 : ff;
1BA2 : ff;
1BA3 : ff;
1BA4 : ff;
1BA5 : ff;
1BA6 : ff;
1BA7 : ff;
1BA8 : ff;
1BA9 : ff;
1BAA : ff;
1BAB : ff;
1BAC : ff;
1BAD : ff;
1BAE : ff;
1BAF : ff;
1BB0 : ff;
1BB1 : ff;
1BB2 : ff;
1BB3 : ff;
1BB4 : ff;
1BB5 : ff;
1BB6 : ff;
1BB7 : ff;
1BB8 : ff;
1BB9 : ff;
1BBA : ff;
1BBB : ff;
1BBC : ff;
1BBD : ff;
1BBE : ff;
1BBF : ff;
1BC0 : ff;
1BC1 : ff;
1BC2 : ff;
1BC3 : ff;
1BC4 : ff;
1BC5 : ff;
1BC6 : ff;
1BC7 : ff;
1BC8 : ff;
1BC9 : ff;
1BCA : ff;
1BCB : ff;
1BCC : ff;
1BCD : ff;
1BCE : ff;
1BCF : ff;
1BD0 : ff;
1BD1 : ff;
1BD2 : ff;
1BD3 : ff;
1BD4 : ff;
1BD5 : ff;
1BD6 : ff;
1BD7 : ff;
1BD8 : ff;
1BD9 : ff;
1BDA : ff;
1BDB : ff;
1BDC : ff;
1BDD : ff;
1BDE : ff;
1BDF : ff;
1BE0 : ff;
1BE1 : ff;
1BE2 : ff;
1BE3 : ff;
1BE4 : ff;
1BE5 : ff;
1BE6 : ff;
1BE7 : ff;
1BE8 : ff;
1BE9 : ff;
1BEA : ff;
1BEB : ff;
1BEC : ff;
1BED : ff;
1BEE : ff;
1BEF : ff;
1BF0 : ff;
1BF1 : ff;
1BF2 : ff;
1BF3 : ff;
1BF4 : ff;
1BF5 : ff;
1BF6 : ff;
1BF7 : ff;
1BF8 : ff;
1BF9 : ff;
1BFA : ff;
1BFB : ff;
1BFC : ff;
1BFD : ff;
1BFE : ff;
1BFF : ff;
1C00 : ff;
1C01 : ff;
1C02 : ff;
1C03 : ff;
1C04 : ff;
1C05 : ff;
1C06 : ff;
1C07 : ff;
1C08 : ff;
1C09 : ff;
1C0A : ff;
1C0B : ff;
1C0C : ff;
1C0D : ff;
1C0E : ff;
1C0F : ff;
1C10 : ff;
1C11 : ff;
1C12 : ff;
1C13 : ff;
1C14 : ff;
1C15 : ff;
1C16 : ff;
1C17 : ff;
1C18 : ff;
1C19 : ff;
1C1A : ff;
1C1B : ff;
1C1C : ff;
1C1D : ff;
1C1E : ff;
1C1F : ff;
1C20 : ff;
1C21 : ff;
1C22 : ff;
1C23 : ff;
1C24 : ff;
1C25 : ff;
1C26 : ff;
1C27 : ff;
1C28 : ff;
1C29 : ff;
1C2A : ff;
1C2B : ff;
1C2C : ff;
1C2D : ff;
1C2E : ff;
1C2F : ff;
1C30 : ff;
1C31 : ff;
1C32 : ff;
1C33 : ff;
1C34 : ff;
1C35 : ff;
1C36 : ff;
1C37 : ff;
1C38 : ff;
1C39 : ff;
1C3A : ff;
1C3B : ff;
1C3C : ff;
1C3D : ff;
1C3E : ff;
1C3F : ff;
1C40 : ff;
1C41 : ff;
1C42 : ff;
1C43 : ff;
1C44 : ff;
1C45 : ff;
1C46 : ff;
1C47 : ff;
1C48 : ff;
1C49 : ff;
1C4A : ff;
1C4B : ff;
1C4C : ff;
1C4D : ff;
1C4E : ff;
1C4F : ff;
1C50 : ff;
1C51 : ff;
1C52 : ff;
1C53 : ff;
1C54 : ff;
1C55 : ff;
1C56 : ff;
1C57 : ff;
1C58 : ff;
1C59 : ff;
1C5A : ff;
1C5B : ff;
1C5C : ff;
1C5D : ff;
1C5E : ff;
1C5F : ff;
1C60 : ff;
1C61 : ff;
[...]
78E7 : ff;
78E8 : ff;
78E9 : ff;
78EA : ff;
78EB : ff;
78EC : ff;
78ED : ff;
78EE : ff;
78EF : ff;
78F0 : ff;
78F1 : ff;
78F2 : ff;
78F3 : ff;
78F4 : ff;
78F5 : ff;
78F6 : ff;
78F7 : ff;
78F8 : ff;
78F9 : ff;
78FA : ff;
78FB : ff;
78FC : ff;
78FD : ff;
78FE : ff;
78FF : ff;
7900 : ff;
7901 : ff;
7902 : ff;
7903 : ff;
7904 : ff;
7905 : ff;
7906 : ff;
7907 : ff;
7908 : ff;
7909 : ff;
790A : ff;
790B : ff;
790C : ff;
790D : ff;
790E : ff;
790F : ff;
7910 : ff;
7911 : ff;
7912 : ff;
7913 : ff;
7914 : ff;
7915 : ff;
7916 : ff;
7917 : ff;
7918 : ff;
7919 : ff;
791A : ff;
791B : ff;
791C : ff;
791D : ff;
791E : ff;
791F : ff;
7920 : ff;
7921 : ff;
7922 : ff;
7923 : ff;
7924 : ff;
7925 : ff;
7926 : ff;
7927 : ff;
7928 : ff;
7929 : ff;
792A : ff;
792B : ff;
792C : ff;
792D : ff;
792E : ff;
792F : ff;
7930 : ff;
7931 : ff;
7932 : ff;
7933 : ff;
7934 : ff;
7935 : ff;
7936 : ff;
7937 : ff;
7938 : ff;
7939 : ff;
793A : ff;
793B : ff;
793C : ff;
793D : ff;
793E : ff;
793F : ff;
7940 : ff;
7941 : ff;
7942 : ff;
7943 : ff;
7944 : ff;
7945 : ff;
7946 : ff;
7947 : ff;
7948 : ff;
7949 : ff;
794A : ff;
794B : ff;
794C : ff;
794D : ff;
794E : ff;
794F : ff;
7950 : ff;
7951 : ff;
7952 : ff;
7953 : ff;
7954 : ff;
7955 : ff;
7956 : ff;
7957 : ff;
7958 : ff;
7959 : ff;
795A : ff;
795B : ff;
795C : ff;
795D : ff;
795E : ff;
795F : ff;
7960 : ff;
7961 : ff;
7962 : ff;
7963 : ff;
7964 : ff;
7965 : ff;
7966 : ff;
7967 : ff;
7968 : ff;
7969 : ff;
796A : ff;
796B : ff;
796C : ff;
796D : ff;
796E : ff;
796F : ff;
7970 : ff;
7971 : ff;
7972 : ff;
7973 : ff;
7974 : ff;
7975 : ff;
7976 : ff;
7977 : ff;
7978 : ff;
7979 : ff;
797A : ff;
797B : ff;
797C : ff;
797D : ff;
797E : ff;
797F : ff;
7980 : ff;
7981 : ff;
7982 : ff;
7983 : ff;
7984 : ff;
7985 : ff;
7986 : ff;
7987 : ff;
7988 : ff;
7989 : ff;
798A : ff;
798B : ff;
798C : ff;
798D : ff;
798E : ff;
798F : ff;
7990 : ff;
7991 : ff;
7992 : ff;
7993 : ff;
7994 : ff;
7995 : ff;
7996 : ff;
7997 : ff;
7998 : ff;
7999 : ff;
799A : ff;
799B : ff;
799C : ff;
799D : ff;
799E : ff;
799F : ff;
79A0 : ff;
79A1 : ff;
79A2 : ff;
79A3 : ff;
79A4 : ff;
79A5 : ff;
79A6 : ff;
79A7 : ff;
79A8 : ff;
79A9 : ff;
79AA : ff;
79AB : ff;
79AC : ff;
79AD : ff;
79AE : ff;
79AF : ff;
79B0 : ff;
79B1 : ff;
79B2 : ff;
79B3 : ff;
79B4 : ff;
79B5 : ff;
79B6 : ff;
79B7 : ff;
79B8 : ff;
79B9 : ff;
79BA : ff;
79BB : ff;
79BC : ff;
79BD : ff;
79BE : ff;
79BF : ff;
79C0 : ff;
79C1 : ff;
79C2 : ff;
79C3 : ff;
79C4 : ff;
79C5 : ff;
79C6 : ff;
79C7 : ff;
79C8 : ff;
79C9 : ff;
79CA : ff;
79CB : ff;
79CC : ff;
79CD : ff;
79CE : ff;
79CF : ff;
79D0 : ff;
79D1 : ff;
79D2 : ff;
79D3 : ff;
79D4 : ff;
79D5 : ff;
79D6 : ff;
79D7 : ff;
79D8 : ff;
79D9 : ff;
79DA : ff;
79DB : ff;
79DC : ff;
79DD : ff;
79DE : ff;
79DF : ff;
79E0 : ff;
79E1 : ff;
79E2 : ff;
79E3 : ff;
79E4 : ff;
79E5 : ff;
79E6 : ff;
79E7 : ff;
79E8 : ff;
79E9 : ff;
79EA : ff;
79EB : ff;
79EC : ff;
79ED : ff;
79EE : ff;
79EF : ff;
79F0 : ff;
79F1 : ff;
79F2 : ff;
79F3 : ff;
79F4 : ff;
79F5 : ff;
79F6 : ff;
79F7 : ff;
79F8 : ff;
79F9 : ff;
79FA : ff;
79FB : ff;
79FC : ff;
79FD : ff;
79FE : ff;
79FF : ff;
7A00 : ff;
7A01 : ff;
7A02 : ff;
7A03 : ff;
7A04 : ff;
7A05 : ff;
7A06 : ff;
7A07 : ff;
7A08 : ff;
7A09 : ff;
7A0A : ff;
7A0B : ff;
7A0C : ff;
7A0D : ff;
7A0E : ff;
7A0F : ff;
7A10 : ff;
7A11 : ff;
7A12 : ff;
7A13 : ff;
7A14 : ff;
7A15 : ff;
7A16 : ff;
7A17 : ff;
7A18 : ff;
7A19 : ff;
7A1A : ff;
7A1B : ff;
7A1C : ff;
7A1D : ff;
7A1E : ff;
7A1F : ff;
7A20 : ff;
7A21 : ff;
7A22 : ff;
7A23 : ff;
7A24 : ff;
7A25 : ff;
7A26 : ff;
7A27 : ff;
7A28 : ff;
7A29 : ff;
7A2A : ff;
7A2B : ff;
7A2C : ff;
7A2D : ff;
7A2E : ff;
7A2F : ff;
7A30 : ff;
7A31 : ff;
7A32 : ff;
7A33 : ff;
7A34 : ff;
7A35 : ff;
7A36 : ff;
7A37 : ff;
7A38 : ff;
7A39 : ff;
7A3A : ff;
7A3B : ff;
7A3C : ff;
7A3D : ff;
7A3E : ff;
7A3F : ff;
7A40 : ff;
7A41 : ff;
7A42 : ff;
7A43 : ff;
7A44 : ff;
7A45 : ff;
7A46 : ff;
7A47 : ff;
7A48 : ff;
7A49 : ff;
7A4A : ff;
7A4B : ff;
7A4C : ff;
7A4D : ff;
7A4E : ff;
7A4F : ff;
7A50 : ff;
7A51 : ff;
7A52 : ff;
7A53 : ff;
7A54 : ff;
7A55 : ff;
7A56 : ff;
7A57 : ff;
7A58 : ff;
7A59 : ff;
7A5A : ff;
7A5B : ff;
7A5C : ff;
7A5D : ff;
7A5E : ff;
7A5F : ff;
7A60 : ff;
7A61 : ff;
7A62 : ff;
7A63 : ff;
7A64 : ff;
7A65 : ff;
7A66 : ff;
7A67 : ff;
7A68 : ff;
7A69 : ff;
7A6A : ff;
7A6B : ff;
7A6C : ff;
7A6D : ff;
7A6E : ff;
7A6F : ff;
7A70 : ff;
7A71 : ff;
7A72 : ff;
7A73 : ff;
7A74 : ff;
7A75 : ff;
7A76 : ff;
7A77 : ff;
7A78 : ff;
7A79 : ff;
7A7A : ff;
7A7B : ff;
7A7C : ff;
7A7D : ff;
7A7E : ff;
7A7F : ff;
7A80 : ff;
7A81 : ff;
7A82 : ff;
7A83 : ff;
7A84 : ff;
7A85 : ff;
7A86 : ff;
7A87 : ff;
7A88 : ff;
7A89 : ff;
7A8A : ff;
7A8B : ff;
7A8C : ff;
7A8D : ff;
7A8E : ff;
7A8F : ff;
7A90 : ff;
7A91 : ff;
7A92 : ff;
7A93 : ff;
7A94 : ff;
7A95 : ff;
7A96 : ff;
7A97 : ff;
7A98 : ff;
7A99 : ff;
7A9A : ff;
7A9B : ff;
7A9C : ff;
7A9D : ff;
7A9E : ff;
7A9F : ff;
7AA0 : ff;
7AA1 : ff;
7AA2 : ff;
7AA3 : ff;
7AA4 : ff;
7AA5 : ff;
7AA6 : ff;
7AA7 : ff;
7AA8 : ff;
7AA9 : ff;
7AAA : ff;
7AAB : ff;
7AAC : ff;
7AAD : ff;
7AAE : ff;
7AAF : ff;
7AB0 : ff;
7AB1 : ff;
7AB2 : ff;
7AB3 : ff;
7AB4 : ff;
7AB5 : ff;
7AB6 : ff;
7AB7 : ff;
7AB8 : ff;
7AB9 : ff;
7ABA : ff;
7ABB : ff;
7ABC : ff;
7ABD : ff;
7ABE : ff;
7ABF : ff;
7AC0 : ff;
7AC1 : ff;
7AC2 : ff;
7AC3 : ff;
7AC4 : ff;
7AC5 : ff;
7AC6 : ff;
7AC7 : ff;
7AC8 : ff;
7AC9 : ff;
7ACA : ff;
7ACB : ff;
7ACC : ff;
7ACD : ff;
7ACE : ff;
7ACF : ff;
7AD0 : ff;
7AD1 : ff;
7AD2 : ff;
7AD3 : ff;
7AD4 : ff;
7AD5 : ff;
7AD6 : ff;
7AD7 : ff;
7AD8 : ff;
7AD9 : ff;
7ADA : ff;
7ADB : ff;
7ADC : ff;
7ADD : ff;
7ADE : ff;
7ADF : ff;
7AE0 : ff;
7AE1 : ff;
7AE2 : ff;
7AE3 : ff;
7AE4 : ff;
7AE5 : ff;
7AE6 : ff;
7AE7 : ff;
7AE8 : ff;
7AE9 : ff;
7AEA : ff;
7AEB : ff;
7AEC : ff;
7AED : ff;
7AEE : ff;
7AEF : ff;
7AF0 : ff;
7AF1 : ff;
7AF2 : ff;
7AF3 : ff;
7AF4 : ff;
7AF5 : ff;
7AF6 : ff;
7AF7 : ff;
7AF8 : ff;
7AF9 : ff;
7AFA : ff;
7AFB : ff;
7AFC : ff;
7AFD : ff;
7AFE : ff;
7AFF : ff;
7B00 : ff;
7B01 : ff;
7B02 : ff;
7B03 : ff;
7B04 : ff;
7B05 : ff;
7B06 : ff;
7B07 : ff;
7B08 : ff;
7B09 : ff;
7B0A : ff;
7B0B : ff;
7B0C : ff;
7B0D : ff;
7B0E : ff;
7B0F : ff;
7B10 : ff;
7B11 : ff;
7B12 : ff;
7B13 : ff;
7B14 : ff;
7B15 : ff;
7B16 : ff;
7B17 : ff;
7B18 : ff;
7B19 : ff;
7B1A : ff;
7B1B : ff;
7B1C : ff;
7B1D : ff;
7B1E : ff;
7B1F : ff;
7B20 : ff;
7B21 : ff;
7B22 : ff;
7B23 : ff;
7B24 : ff;
7B25 : ff;
7B26 : ff;
7B27 : ff;
7B28 : ff;
7B29 : ff;
7B2A : ff;
7B2B : ff;
7B2C : ff;
7B2D : ff;
7B2E : ff;
7B2F : ff;
7B30 : ff;
7B31 : ff;
7B32 : ff;
7B33 : ff;
7B34 : ff;
7B35 : ff;
7B36 : ff;
7B37 : ff;
7B38 : ff;
7B39 : ff;
7B3A : ff;
7B3B : ff;
7B3C : ff;
7B3D : ff;
7B3E : ff;
7B3F : ff;
7B40 : ff;
7B41 : ff;
7B42 : ff;
7B43 : ff;
7B44 : ff;
7B45 : ff;
7B46 : ff;
7B47 : ff;
7B48 : ff;
7B49 : ff;
7B4A : ff;
7B4B : ff;
7B4C : ff;
7B4D : ff;
7B4E : ff;
7B4F : ff;
7B50 : ff;
7B51 : ff;
7B52 : ff;
7B53 : ff;
7B54 : ff;
7B55 : ff;
7B56 : ff;
7B57 : ff;
7B58 : ff;
7B59 : ff;
7B5A : ff;
7B5B : ff;
7B5C : ff;
7B5D : ff;
7B5E : ff;
7B5F : ff;
7B60 : ff;
7B61 : ff;
7B62 : ff;
7B63 : ff;
7B64 : ff;
7B65 : ff;
7B66 : ff;
7B67 : ff;
7B68 : ff;
7B69 : ff;
7B6A : ff;
7B6B : ff;
7B6C : ff;
7B6D : ff;
7B6E : ff;
7B6F : ff;
7B70 : ff;
7B71 : ff;
7B72 : ff;
7B73 : ff;
7B74 : ff;
7B75 : ff;
7B76 : ff;
7B77 : ff;
7B78 : ff;
7B79 : ff;
7B7A : ff;
7B7B : ff;
7B7C : ff;
7B7D : ff;
7B7E : ff;
7B7F : ff;
7B80 : ff;
7B81 : ff;
7B82 : ff;
7B83 : ff;
7B84 : ff;
7B85 : ff;
7B86 : ff;
7B87 : ff;
7B88 : ff;
7B89 : ff;
7B8A : ff;
7B8B : ff;
7B8C : ff;
7B8D : ff;
7B8E : ff;
7B8F : ff;
7B90 : ff;
7B91 : ff;
7B92 : ff;
7B93 : ff;
7B94 : ff;
7B95 : ff;
7B96 : ff;
7B97 : ff;
7B98 : ff;
7B99 : ff;
7B9A : ff;
7B9B : ff;
7B9C : ff;
7B9D : ff;
7B9E : ff;
7B9F : ff;
7BA0 : ff;
7BA1 : ff;
7BA2 : ff;
7BA3 : ff;
7BA4 : ff;
7BA5 : ff;
7BA6 : ff;
7BA7 : ff;
7BA8 : ff;
7BA9 : ff;
7BAA : ff;
7BAB : ff;
7BAC : ff;
7BAD : ff;
7BAE : ff;
7BAF : ff;
7BB0 : ff;
7BB1 : ff;
7BB2 : ff;
7BB3 : ff;
7BB4 : ff;
7BB5 : ff;
7BB6 : ff;
7BB7 : ff;
7BB8 : ff;
7BB9 : ff;
7BBA : ff;
7BBB : ff;
7BBC : ff;
7BBD : ff;
7BBE : ff;
7BBF : ff;
7BC0 : ff;
7BC1 : ff;
7BC2 : ff;
7BC3 : ff;
7BC4 : ff;
7BC5 : ff;
7BC6 : ff;
7BC7 : ff;
7BC8 : ff;
7BC9 : ff;
7BCA : ff;
7BCB : ff;
7BCC : ff;
7BCD : ff;
7BCE : ff;
7BCF : ff;
7BD0 : ff;
7BD1 : ff;
7BD2 : ff;
7BD3 : ff;
7BD4 : ff;
7BD5 : ff;
7BD6 : ff;
7BD7 : ff;
7BD8 : ff;
7BD9 : ff;
7BDA : ff;
7BDB : ff;
7BDC : ff;
7BDD : ff;
7BDE : ff;
7BDF : ff;
7BE0 : ff;
7BE1 : ff;
7BE2 : ff;
7BE3 : ff;
7BE4 : ff;
7BE5 : ff;
7BE6 : ff;
7BE7 : ff;
7BE8 : ff;
7BE9 : ff;
7BEA : ff;
7BEB : ff;
7BEC : ff;
7BED : ff;
7BEE : ff;
7BEF : ff;
7BF0 : ff;
7BF1 : ff;
7BF2 : ff;
7BF3 : ff;
7BF4 : ff;
7BF5 : ff;
7BF6 : ff;
7BF7 : ff;
7BF8 : ff;
7BF9 : ff;
7BFA : ff;
7BFB : ff;
7BFC : ff;
7BFD : ff;
7BFE : ff;
7BFF : ff;
7C00 : ff;
7C01 : ff;
7C02 : ff;
7C03 : ff;
7C04 : ff;
7C05 : ff;
7C06 : ff;
7C07 : ff;
7C08 : ff;
7C09 : ff;
7C0A : ff;
7C0B : ff;
7C0C : ff;
7C0D : ff;
7C0E : ff;
7C0F : ff;
7C10 : ff;
7C11 : ff;
7C12 : ff;
7C13 : ff;
7C14 : ff;
7C15 : ff;
7C16 : ff;
7C17 : ff;
7C18 : ff;
7C19 : ff;
7C1A : ff;
7C1B : ff;
7C1C : ff;
7C1D : ff;
7C1E : ff;
7C1F : ff;
7C20 : ff;
7C21 : ff;
7C22 : ff;
7C23 : ff;
7C24 : ff;
7C25 : ff;
7C26 : ff;
7C27 : ff;
7C28 : ff;
7C29 : ff;
7C2A : ff;
7C2B : ff;
7C2C : ff;
7C2D : ff;
7C2E : ff;
7C2F : ff;
7C30 : ff;
7C31 : ff;
7C32 : ff;
7C33 : ff;
7C34 : ff;
7C35 : ff;
7C36 : ff;
7C37 : ff;
7C38 : ff;
7C39 : ff;
7C3A : ff;
7C3B : ff;
7C3C : ff;
7C3D : ff;
7C3E : ff;
7C3F : ff;
7C40 : ff;
7C41 : ff;
7C42 : ff;
7C43 : ff;
7C44 : ff;
7C45 : ff;
7C46 : ff;
7C47 : ff;
7C48 : ff;
7C49 : ff;
7C4A : ff;
7C4B : ff;
7C4C : ff;
7C4D : ff;
7C4E : ff;
7C4F : ff;
7C50 : ff;
7C51 : ff;
7C52 : ff;
7C53 : ff;
7C54 : ff;
7C55 : ff;
7C56 : ff;
7C57 : ff;
7C58 : ff;
7C59 : ff;
7C5A : ff;
7C5B : ff;
7C5C : ff;
7C5D : ff;
7C5E : ff;
7C5F : ff;
7C60 : ff;
7C61 : ff;
7C62 : ff;
7C63 : ff;
7C64 : ff;
7C65 : ff;
7C66 : ff;
7C67 : ff;
7C68 : ff;
7C69 : ff;
7C6A : ff;
7C6B : ff;
7C6C : ff;
7C6D : ff;
7C6E : ff;
7C6F : ff;
7C70 : ff;
7C71 : ff;
7C72 : ff;
7C73 : ff;
7C74 : ff;
7C75 : ff;
7C76 : ff;
7C77 : ff;
7C78 : ff;
7C79 : ff;
7C7A : ff;
7C7B : ff;
7C7C : ff;
7C7D : ff;
7C7E : ff;
7C7F : ff;
7C80 : ff;
7C81 : ff;
7C82 : ff;
7C83 : ff;
7C84 : ff;
7C85 : ff;
7C86 : ff;
7C87 : ff;
7C88 : ff;
7C89 : ff;
7C8A : ff;
7C8B : ff;
7C8C : ff;
7C8D : ff;
7C8E : ff;
7C8F : ff;
7C90 : ff;
7C91 : ff;
7C92 : ff;
7C93 : ff;
7C94 : ff;
7C95 : ff;
7C96 : ff;
7C97 : ff;
7C98 : ff;
7C99 : ff;
7C9A : ff;
7C9B : ff;
7C9C : ff;
7C9D : ff;
7C9E : ff;
7C9F : ff;
7CA0 : ff;
7CA1 : ff;
7CA2 : ff;
7CA3 : ff;
7CA4 : ff;
7CA5 : ff;
7CA6 : ff;
7CA7 : ff;
7CA8 : ff;
7CA9 : ff;
7CAA : ff;
7CAB : ff;
7CAC : ff;
7CAD : ff;
7CAE : ff;
7CAF : ff;
7CB0 : ff;
7CB1 : ff;
7CB2 : ff;
7CB3 : ff;
7CB4 : ff;
7CB5 : ff;
7CB6 : ff;
7CB7 : ff;
7CB8 : ff;
7CB9 : ff;
7CBA : ff;
7CBB : ff;
7CBC : ff;
7CBD : ff;
7CBE : ff;
7CBF : ff;
7CC0 : ff;
7CC1 : ff;
7CC2 : ff;
7CC3 : ff;
7CC4 : ff;
7CC5 : ff;
7CC6 : ff;
7CC7 : ff;
7CC8 : ff;
7CC9 : ff;
7CCA : ff;
7CCB : ff;
7CCC : ff;
7CCD : ff;
7CCE : ff;
7CCF : ff;
7CD0 : ff;
7CD1 : ff;
7CD2 : ff;
7CD3 : ff;
7CD4 : ff;
7CD5 : ff;
7CD6 : ff;
7CD7 : ff;
7CD8 : ff;
7CD9 : ff;
7CDA : ff;
7CDB : ff;
7CDC : ff;
7CDD : ff;
7CDE : ff;
7CDF : ff;
7CE0 : ff;
7CE1 : ff;
7CE2 : ff;
7CE3 : ff;
7CE4 : ff;
7CE5 : ff;
7CE6 : ff;
7CE7 : ff;
7CE8 : ff;
7CE9 : ff;
7CEA : ff;
7CEB : ff;
7CEC : ff;
7CED : ff;
7CEE : ff;
7CEF : ff;
7CF0 : ff;
7CF1 : ff;
7CF2 : ff;
7CF3 : ff;
7CF4 : ff;
7CF5 : ff;
7CF6 : ff;
7CF7 : ff;
7CF8 : ff;
7CF9 : ff;
7CFA : ff;
7CFB : ff;
7CFC : ff;
7CFD : ff;
7CFE : ff;
7CFF : ff;
7D00 : ff;
7D01 : ff;
7D02 : ff;
7D03 : ff;
7D04 : ff;
7D05 : ff;
7D06 : ff;
7D07 : ff;
7D08 : ff;
7D09 : ff;
7D0A : ff;
7D0B : ff;
7D0C : ff;
7D0D : ff;
7D0E : ff;
7D0F : ff;
7D10 : ff;
7D11 : ff;
7D12 : ff;
7D13 : ff;
7D14 : ff;
7D15 : ff;
7D16 : ff;
7D17 : ff;
7D18 : ff;
7D19 : ff;
7D1A : ff;
7D1B : ff;
7D1C : ff;
7D1D : ff;
7D1E : ff;
7D1F : ff;
7D20 : ff;
7D21 : ff;
7D22 : ff;
7D23 : ff;
7D24 : ff;
7D25 : ff;
7D26 : ff;
7D27 : ff;
7D28 : ff;
7D29 : ff;
7D2A : ff;
7D2B : ff;
7D2C : ff;
7D2D : ff;
7D2E : ff;
7D2F : ff;
7D30 : ff;
7D31 : ff;
7D32 : ff;
7D33 : ff;
7D34 : ff;
7D35 : ff;
7D36 : ff;
7D37 : ff;
7D38 : ff;
7D39 : ff;
7D3A : ff;
7D3B : ff;
7D3C : ff;
7D3D : ff;
7D3E : ff;
7D3F : ff;
7D40 : ff;
7D41 : ff;
7D42 : ff;
7D43 : ff;
7D44 : ff;
7D45 : ff;
7D46 : ff;
7D47 : ff;
7D48 : ff;
7D49 : ff;
7D4A : ff;
7D4B : ff;
7D4C : ff;
7D4D : ff;
7D4E : ff;
7D4F : ff;
7D50 : ff;
7D51 : ff;
7D52 : ff;
7D53 : ff;
7D54 : ff;
7D55 : ff;
7D56 : ff;
7D57 : ff;
7D58 : ff;
7D59 : ff;
7D5A : ff;
7D5B : ff;
7D5C : ff;
7D5D : ff;
7D5E : ff;
7D5F : ff;
7D60 : ff;
7D61 : ff;
7D62 : ff;
7D63 : ff;
7D64 : ff;
7D65 : ff;
7D66 : ff;
7D67 : ff;
7D68 : ff;
7D69 : ff;
7D6A : ff;
7D6B : ff;
7D6C : ff;
7D6D : ff;
7D6E : ff;
7D6F : ff;
7D70 : ff;
7D71 : ff;
7D72 : ff;
7D73 : ff;
7D74 : ff;
7D75 : ff;
7D76 : ff;
7D77 : ff;
7D78 : ff;
7D79 : ff;
7D7A : ff;
7D7B : ff;
7D7C : ff;
7D7D : ff;
7D7E : ff;
7D7F : ff;
7D80 : ff;
7D81 : ff;
7D82 : ff;
7D83 : ff;
7D84 : ff;
7D85 : ff;
7D86 : ff;
7D87 : ff;
7D88 : ff;
7D89 : ff;
7D8A : ff;
7D8B : ff;
7D8C : ff;
7D8D : ff;
7D8E : ff;
7D8F : ff;
7D90 : ff;
7D91 : ff;
7D92 : ff;
7D93 : ff;
7D94 : ff;
7D95 : ff;
7D96 : ff;
7D97 : ff;
7D98 : ff;
7D99 : ff;
7D9A : ff;
7D9B : ff;
7D9C : ff;
7D9D : ff;
7D9E : ff;
7D9F : ff;
7DA0 : ff;
7DA1 : ff;
7DA2 : ff;
7DA3 : ff;
7DA4 : ff;
7DA5 : ff;
7DA6 : ff;
7DA7 : ff;
7DA8 : ff;
7DA9 : ff;
7DAA : ff;
7DAB : ff;
7DAC : ff;
7DAD : ff;
7DAE : ff;
7DAF : ff;
7DB0 : ff;
7DB1 : ff;
7DB2 : ff;
7DB3 : ff;
7DB4 : ff;
7DB5 : ff;
7DB6 : ff;
7DB7 : ff;
7DB8 : ff;
7DB9 : ff;
7DBA : ff;
7DBB : ff;
7DBC : ff;
7DBD : ff;
7DBE : ff;
7DBF : ff;
7DC0 : ff;
7DC1 : ff;
7DC2 : ff;
7DC3 : ff;
7DC4 : ff;
7DC5 : ff;
7DC6 : ff;
7DC7 : ff;
7DC8 : ff;
7DC9 : ff;
7DCA : ff;
7DCB : ff;
7DCC : ff;
7DCD : ff;
7DCE : ff;
7DCF : ff;
7DD0 : ff;
7DD1 : ff;
7DD2 : ff;
7DD3 : ff;
7DD4 : ff;
7DD5 : ff;
7DD6 : ff;
7DD7 : ff;
7DD8 : ff;
7DD9 : ff;
7DDA : ff;
7DDB : ff;
7DDC : ff;
7DDD : ff;
7DDE : ff;
7DDF : ff;
7DE0 : ff;
7DE1 : ff;
7DE2 : ff;
7DE3 : ff;
7DE4 : ff;
7DE5 : ff;
7DE6 : ff;
7DE7 : ff;
7DE8 : ff;
7DE9 : ff;
7DEA : ff;
7DEB : ff;
7DEC : ff;
7DED : ff;
7DEE : ff;
7DEF : ff;
7DF0 : ff;
7DF1 : ff;
7DF2 : ff;
7DF3 : ff;
7DF4 : ff;
7DF5 : ff;
7DF6 : ff;
7DF7 : ff;
7DF8 : ff;
7DF9 : ff;
7DFA : ff;
7DFB : ff;
7DFC : ff;
7DFD : ff;
7DFE : ff;
7DFF : ff;
7E00 : ff;
7E01 : ff;
7E02 : ff;
7E03 : ff;
7E04 : ff;
7E05 : ff;
7E06 : ff;
7E07 : ff;
7E08 : ff;
7E09 : ff;
7E0A : ff;
7E0B : ff;
7E0C : ff;
7E0D : ff;
7E0E : ff;
7E0F : ff;
7E10 : ff;
7E11 : ff;
7E12 : ff;
7E13 : ff;
7E14 : ff;
7E15 : ff;
7E16 : ff;
7E17 : ff;
7E18 : ff;
7E19 : ff;
7E1A : ff;
7E1B : ff;
7E1C : ff;
7E1D : ff;
7E1E : ff;
7E1F : ff;
7E20 : ff;
7E21 : ff;
7E22 : ff;
7E23 : ff;
7E24 : ff;
7E25 : ff;
7E26 : ff;
7E27 : ff;
7E28 : ff;
7E29 : ff;
7E2A : ff;
7E2B : ff;
7E2C : ff;
7E2D : ff;
7E2E : ff;
7E2F : ff;
7E30 : ff;
7E31 : ff;
7E32 : ff;
7E33 : ff;
7E34 : ff;
7E35 : ff;
7E36 : ff;
7E37 : ff;
7E38 : ff;
7E39 : ff;
7E3A : ff;
7E3B : ff;
7E3C : ff;
7E3D : ff;
7E3E : ff;
7E3F : ff;
7E40 : ff;
7E41 : ff;
7E42 : ff;
7E43 : ff;
7E44 : ff;
7E45 : ff;
7E46 : ff;
7E47 : ff;
7E48 : ff;
7E49 : ff;
7E4A : ff;
7E4B : ff;
7E4C : ff;
7E4D : ff;
7E4E : ff;
7E4F : ff;
7E50 : ff;
7E51 : ff;
7E52 : ff;
7E53 : ff;
7E54 : ff;
7E55 : ff;
7E56 : ff;
7E57 : ff;
7E58 : ff;
7E59 : ff;
7E5A : ff;
7E5B : ff;
7E5C : ff;
7E5D : ff;
7E5E : ff;
7E5F : ff;
7E60 : ff;
7E61 : ff;
7E62 : ff;
7E63 : ff;
7E64 : ff;
7E65 : ff;
7E66 : ff;
7E67 : ff;
7E68 : ff;
7E69 : ff;
7E6A : ff;
7E6B : ff;
7E6C : ff;
7E6D : ff;
7E6E : ff;
7E6F : ff;
7E70 : ff;
7E71 : ff;
7E72 : ff;
7E73 : ff;
7E74 : ff;
7E75 : ff;
7E76 : ff;
7E77 : ff;
7E78 : ff;
7E79 : ff;
7E7A : ff;
7E7B : ff;
7E7C : ff;
7E7D : ff;
7E7E : ff;
7E7F : ff;
7E80 : ff;
7E81 : ff;
7E82 : ff;
7E83 : ff;
7E84 : ff;
7E85 : ff;
7E86 : ff;
7E87 : ff;
7E88 : ff;
7E89 : ff;
7E8A : ff;
7E8B : ff;
7E8C : ff;
7E8D : ff;
7E8E : ff;
7E8F : ff;
7E90 : ff;
7E91 : ff;
7E92 : ff;
7E93 : ff;
7E94 : ff;
7E95 : ff;
7E96 : ff;
7E97 : ff;
7E98 : ff;
7E99 : ff;
7E9A : ff;
7E9B : ff;
7E9C : ff;
7E9D : ff;
7E9E : ff;
7E9F : ff;
7EA0 : ff;
7EA1 : ff;
7EA2 : ff;
7EA3 : ff;
7EA4 : ff;
7EA5 : ff;
7EA6 : ff;
7EA7 : ff;
7EA8 : ff;
7EA9 : ff;
7EAA : ff;
7EAB : ff;
7EAC : ff;
7EAD : ff;
7EAE : ff;
7EAF : ff;
7EB0 : ff;
7EB1 : ff;
7EB2 : ff;
7EB3 : ff;
7EB4 : ff;
7EB5 : ff;
7EB6 : ff;
7EB7 : ff;
7EB8 : ff;
7EB9 : ff;
7EBA : ff;
7EBB : ff;
7EBC : ff;
7EBD : ff;
7EBE : ff;
7EBF : ff;
7EC0 : ff;
7EC1 : ff;
7EC2 : ff;
7EC3 : ff;
7EC4 : ff;
7EC5 : ff;
7EC6 : ff;
7EC7 : ff;
7EC8 : ff;
7EC9 : ff;
7ECA : ff;
7ECB : ff;
7ECC : ff;
7ECD : ff;
7ECE : ff;
7ECF : ff;
7ED0 : ff;
7ED1 : ff;
7ED2 : ff;
7ED3 : ff;
7ED4 : ff;
7ED5 : ff;
7ED6 : ff;
7ED7 : ff;
7ED8 : ff;
7ED9 : ff;
7EDA : ff;
7EDB : ff;
7EDC : ff;
7EDD : ff;
7EDE : ff;
7EDF : ff;
7EE0 : ff;
7EE1 : ff;
7EE2 : ff;
7EE3 : ff;
7EE4 : ff;
7EE5 : ff;
7EE6 : ff;
7EE7 : ff;
7EE8 : ff;
7EE9 : ff;
7EEA : ff;
7EEB : ff;
7EEC : ff;
7EED : ff;
7EEE : ff;
7EEF : ff;
7EF0 : ff;
7EF1 : ff;
7EF2 : ff;
7EF3 : ff;
7EF4 : ff;
7EF5 : ff;
7EF6 : ff;
7EF7 : ff;
7EF8 : ff;
7EF9 : ff;
7EFA : ff;
7EFB : ff;
7EFC : ff;
7EFD : ff;
7EFE : ff;
7EFF : ff;
7F00 : ff;
7F01 : ff;
7F02 : ff;
7F03 : ff;
7F04 : ff;
7F05 : ff;
7F06 : ff;
7F07 : ff;
7F08 : ff;
7F09 : ff;
7F0A : ff;
7F0B : ff;
7F0C : ff;
7F0D : ff;
7F0E : ff;
7F0F : ff;
7F10 : ff;
7F11 : ff;
7F12 : ff;
7F13 : ff;
7F14 : ff;
7F15 : ff;
7F16 : ff;
7F17 : ff;
7F18 : ff;
7F19 : ff;
7F1A : ff;
7F1B : ff;
7F1C : ff;
7F1D : ff;
7F1E : ff;
7F1F : ff;
7F20 : ff;
7F21 : ff;
7F22 : ff;
7F23 : ff;
7F24 : ff;
7F25 : ff;
7F26 : ff;
7F27 : ff;
7F28 : ff;
7F29 : ff;
7F2A : ff;
7F2B : ff;
7F2C : ff;
7F2D : ff;
7F2E : ff;
7F2F : ff;
7F30 : ff;
7F31 : ff;
7F32 : ff;
7F33 : ff;
7F34 : ff;
7F35 : ff;
7F36 : ff;
7F37 : ff;
7F38 : ff;
7F39 : ff;
7F3A : ff;
7F3B : ff;
7F3C : ff;
7F3D : ff;
7F3E : ff;
7F3F : ff;
7F40 : ff;
7F41 : ff;
7F42 : ff;
7F43 : ff;
7F44 : ff;
7F45 : ff;
7F46 : ff;
7F47 : ff;
7F48 : ff;
7F49 : ff;
7F4A : ff;
7F4B : ff;
7F4C : ff;
7F4D : ff;
7F4E : ff;
7F4F : ff;
7F50 : ff;
7F51 : ff;
7F52 : ff;
7F53 : ff;
7F54 : ff;
7F55 : ff;
7F56 : ff;
7F57 : ff;
7F58 : ff;
7F59 : ff;
7F5A : ff;
7F5B : ff;
7F5C : ff;
7F5D : ff;
7F5E : ff;
7F5F : ff;
7F60 : ff;
7F61 : ff;
7F62 : ff;
7F63 : ff;
7F64 : ff;
7F65 : ff;
7F66 : ff;
7F67 : ff;
7F68 : ff;
7F69 : ff;
7F6A : ff;
7F6B : ff;
7F6C : ff;
7F6D : ff;
7F6E : ff;
7F6F : ff;
7F70 : ff;
7F71 : ff;
7F72 : ff;
7F73 : ff;
7F74 : ff;
7F75 : ff;
7F76 : ff;
7F77 : ff;
7F78 : ff;
7F79 : ff;
7F7A : ff;
7F7B : ff;
7F7C : ff;
7F7D : ff;
7F7E : ff;
7F7F : ff;
7F80 : ff;
7F81 : ff;
7F82 : ff;
7F83 : ff;
7F84 : ff;
7F85 : ff;
7F86 : ff;
7F87 : ff;
7F88 : ff;
7F89 : ff;
7F8A : ff;
7F8B : ff;
7F8C : ff;
7F8D : ff;
7F8E : ff;
7F8F : ff;
7F90 : ff;
7F91 : ff;
7F92 : ff;
7F93 : ff;
7F94 : ff;
7F95 : ff;
7F96 : ff;
7F97 : ff;
7F98 : ff;
7F99 : ff;
7F9A : ff;
7F9B : ff;
7F9C : ff;
7F9D : ff;
7F9E : ff;
7F9F : ff;
7FA0 : ff;
7FA1 : ff;
7FA2 : ff;
7FA3 : ff;
7FA4 : ff;
7FA5 : ff;
7FA6 : ff;
7FA7 : ff;
7FA8 : ff;
7FA9 : ff;
7FAA : ff;
7FAB : ff;
7FAC : ff;
7FAD : ff;
7FAE : ff;
7FAF : ff;
7FB0 : ff;
7FB1 : ff;
7FB2 : ff;
7FB3 : ff;
7FB4 : ff;
7FB5 : ff;
7FB6 : ff;
7FB7 : ff;
7FB8 : ff;
7FB9 : ff;
7FBA : ff;
7FBB : ff;
7FBC : ff;
7FBD : ff;
7FBE : ff;
7FBF : ff;
7FC0 : ff;
7FC1 : ff;
7FC2 : ff;
7FC3 : ff;
7FC4 : ff;
7FC5 : ff;
7FC6 : ff;
7FC7 : ff;
7FC8 : ff;
7FC9 : ff;
7FCA : ff;
7FCB : ff;
7FCC : ff;
7FCD : ff;
7FCE : ff;
7FCF : ff;
7FD0 : ff;
7FD1 : ff;
7FD2 : ff;
7FD3 : ff;
7FD4 : ff;
7FD5 : ff;
7FD6 : ff;
7FD7 : ff;
7FD8 : ff;
7FD9 : ff;
7FDA : ff;
7FDB : ff;
7FDC : ff;
7FDD : ff;
7FDE : ff;
7FDF : ff;
7FE0 : ff;
7FE1 : ff;
7FE2 : ff;
7FE3 : ff;
7FE4 : ff;
7FE5 : ff;
7FE6 : ff;
7FE7 : ff;
7FE8 : ff;
7FE9 : ff;
7FEA : ff;
7FEB : ff;
7FEC : ff;
7FED : ff;
7FEE : ff;
7FEF : ff;
7FF0 : ff;
7FF1 : ff;
7FF2 : ff;
7FF3 : ff;
7FF4 : ff;
7FF5 : ff;
7FF6 : ff;
7FF7 : ff;
7FF8 : ff;
7FF9 : ff;
7FFA : 29;
7FFB : e0;
7FFC : 3e;
7FFD : e0;
7FFE : 26;
7FFF : e0;
END;